L_1YET
  rDOCK(R)          3D
libRbt.so/2013.1/901 2013/11/27
 44 45  0  0  0  0  0  0  0  0999 V2000
   38.3457   10.2244   20.1303 O   0  0  0  0  0  0
   33.4716   12.8145   23.8144 O   0  0  0  0  0  0
   31.3609   11.0304   23.8879 O   0  0  0  0  0  0
   30.1418   11.1923   25.8286 O   0  0  0  0  0  0
   33.1008    5.4053   27.9987 O   0  0  0  0  0  0
   35.6136    6.7545   28.5353 O   0  0  0  0  0  0
   34.6680    4.3443   23.7681 O   0  0  0  0  0  0
   33.6140    5.3453   21.4671 O   0  0  0  0  0  0
   38.3103    7.3008   22.8408 O   0  0  0  0  0  0
   37.2909    8.2828   20.6198 N   0  0  0  0  0  0
   29.1636   11.2355   23.7893 N   0  0  0  0  0  0
   37.7804    9.5620   20.9665 C   0  0  0  0  0  0
   37.6592   10.0148   22.3896 C   0  0  0  0  0  0
   36.4265   10.1658   22.9402 C   0  0  0  0  0  0
   36.1576   10.5994   24.3080 C   0  0  0  0  0  0
   34.9965   11.1185   24.7587 C   0  0  0  0  0  0
   33.7468   11.3676   23.9896 C   0  0  0  0  0  0
   32.4615   10.7262   24.6798 C   0  0  0  0  0  0
   32.5648    9.1044   24.8530 C   0  0  0  0  0  0
   32.4548    8.5520   26.0513 C   0  0  0  0  0  0
   32.4706    7.0978   26.4185 C   0  0  0  0  0  0
   33.3602    6.7812   27.6313 C   0  0  0  0  0  0
   34.8460    6.9925   27.3361 C   0  0  0  0  0  0
   35.3983    6.0454   26.2747 C   0  0  0  0  0  0
   36.8868    6.2445   25.8998 C   0  0  0  0  0  0
   37.3201    5.4173   24.6407 C   0  0  0  0  0  0
   36.5660    5.8147   23.4054 C   0  0  0  0  0  0
   35.3777    5.3469   23.0085 C   0  0  0  0  0  0
   34.7054    5.8106   21.7802 C   0  0  0  0  0  0
   35.3496    6.8315   20.9487 C   0  0  0  0  0  0
   36.5370    7.3261   21.2938 C   0  0  0  0  0  0
   37.2112    6.8413   22.5381 C   0  0  0  0  0  0
   38.9489   10.3012   23.0933 C   0  0  0  0  0  0
   32.6496   13.1651   22.6449 C   0  0  0  0  0  0
   30.2073   11.1571   24.6227 C   0  0  0  0  0  0
   32.7440    8.3038   23.5613 C   0  0  0  0  0  0
   31.0069    6.7055   26.7185 C   0  0  0  0  0  0
   35.4374    7.7947   29.5475 C   0  0  0  0  0  0
   37.1815    7.7075   25.7369 C   0  0  0  0  0  0
   35.2063    3.0730   24.1610 C   0  0  0  0  0  0
   33.6611    5.1592   28.8273 H   0  0  0  0  0  0
   37.5466    7.9968   19.6639 H   0  0  0  0  0  0
   29.3136   11.1968   22.7710 H   0  0  0  0  0  0
   28.2100   11.3344   24.1661 H   0  0  0  0  0  0
  1 12  2  0  0  0
  2 17  1  0  0  0
  2 34  1  0  0  0
  3 18  1  0  0  0
  3 35  1  0  0  0
  4 35  2  0  0  0
  5 22  1  0  0  0
  6 23  1  0  0  0
  6 38  1  0  0  0
  7 28  1  0  0  0
  7 40  1  0  0  0
  8 29  2  0  0  0
  9 32  2  0  0  0
 10 12  1  0  0  0
 10 31  1  0  0  0
 11 35  1  0  0  0
 12 13  1  0  0  0
 13 14  2  0  0  0
 13 33  1  0  0  0
 14 15  1  0  0  0
 15 16  2  0  0  0
 16 17  1  0  0  0
 17 18  1  0  0  0
 18 19  1  0  0  0
 19 20  2  0  0  0
 19 36  1  0  0  0
 20 21  1  0  0  0
 21 22  1  0  0  0
 21 37  1  0  0  0
 22 23  1  0  0  0
 23 24  1  0  0  0
 24 25  1  0  0  0
 25 26  1  0  0  0
 25 39  1  0  0  0
 26 27  1  0  0  0
 27 28  2  0  0  0
 27 32  1  0  0  0
 28 29  1  0  0  0
 29 30  1  0  0  0
 30 31  2  0  0  0
 31 32  1  0  0  0
  5 41  1  0  0  0
 10 42  1  0  0  0
 11 43  1  0  0  0
 11 44  1  0  0  0
M  END
>  <CHROM.0>
62.37268618,-59.89549701,175.04159574,83.90164385,9.51593688,170.33362824

>  <CHROM.1>
154.85380128,-149.13805750,9.77835197,-178.48184398,-70.89383829,-54.46982344
34.66997285,8.25296325,24.26301054,-0.21194305,0.62314755,-0.63196232

>  <Name>
L_1YET

>  <RI>
0

>  <Rbt.Current_Directory>
/home/daniel/Dropbox/WORK/rDock_2013.1_src_DAG/bin

>  <Rbt.Executable>
rbdock ($Id: //depot/dev/client3/rdock/2013.1/src/exe/rbdock.cxx#4 $)

>  <Rbt.Library>
libRbt.so (2013.1, Build901 2013/11/27)

>  <Rbt.Parameter_File>
/home/daniel/dev/rdock-code//data/scripts/dock.prm

>  <Rbt.Receptor>
1YET_test.prm

>  <SCORE>
-46.3637

>  <SCORE.INTER>
-28.3926

>  <SCORE.INTER.CONST>
1

>  <SCORE.INTER.POLAR>
-3.23299

>  <SCORE.INTER.REPUL>
0

>  <SCORE.INTER.ROT>
5

>  <SCORE.INTER.VDW>
-27.8004

>  <SCORE.INTER.norm>
-0.709814

>  <SCORE.INTRA>
-8.85391

>  <SCORE.INTRA.DIHEDRAL>
-4.43437

>  <SCORE.INTRA.DIHEDRAL.0>
15.3889

>  <SCORE.INTRA.POLAR>
0

>  <SCORE.INTRA.POLAR.0>
0

>  <SCORE.INTRA.REPUL>
0

>  <SCORE.INTRA.REPUL.0>
0

>  <SCORE.INTRA.VDW>
-6.63672

>  <SCORE.INTRA.VDW.0>
7.09596

>  <SCORE.INTRA.norm>
-0.221348

>  <SCORE.RESTR>
0.0849078

>  <SCORE.RESTR.CAVITY>
0

>  <SCORE.RESTR.PHARMA>
0.0849078

>  <SCORE.RESTR.PHARMA.con_1>
0.0849078

>  <SCORE.RESTR.PHARMA.con_2>
0

>  <SCORE.RESTR.norm>
0.0021227

>  <SCORE.SYSTEM>
-9.20212

>  <SCORE.SYSTEM.CONST>
0

>  <SCORE.SYSTEM.DIHEDRAL>
1.91348

>  <SCORE.SYSTEM.POLAR>
-2.4122

>  <SCORE.SYSTEM.REPUL>
0.00182391

>  <SCORE.SYSTEM.VDW>
-1.9665

>  <SCORE.SYSTEM.norm>
-0.230053

>  <SCORE.heavy>
40

>  <SCORE.norm>
-1.15909

$$$$
L_1YET
  rDOCK(R)          3D
libRbt.so/2013.1/901 2013/11/27
 44 45  0  0  0  0  0  0  0  0999 V2000
   38.2944   10.1979   20.2353 O   0  0  0  0  0  0
   33.4364   12.8544   23.8933 O   0  0  0  0  0  0
   31.2935   11.1081   23.9388 O   0  0  0  0  0  0
   29.9595   10.4465   25.6884 O   0  0  0  0  0  0
   32.8973    5.4295   28.0313 O   0  0  0  0  0  0
   35.4292    6.7303   28.5969 O   0  0  0  0  0  0
   34.4811    4.3644   23.8080 O   0  0  0  0  0  0
   33.4648    5.3971   21.5041 O   0  0  0  0  0  0
   38.1836    7.2601   22.9285 O   0  0  0  0  0  0
   37.2009    8.2728   20.7047 N   0  0  0  0  0  0
   29.0955   11.1942   23.7360 N   0  0  0  0  0  0
   37.7103    9.5411   21.0629 C   0  0  0  0  0  0
   37.5851    9.9879   22.4876 C   0  0  0  0  0  0
   36.3507   10.1579   23.0287 C   0  0  0  0  0  0
   36.0780   10.5886   24.3966 C   0  0  0  0  0  0
   34.9226   11.1259   24.8405 C   0  0  0  0  0  0
   33.6841   11.4018   24.0625 C   0  0  0  0  0  0
   32.3817   10.7798   24.7381 C   0  0  0  0  0  0
   32.4545    9.1553   24.9028 C   0  0  0  0  0  0
   32.3244    8.5983   26.0968 C   0  0  0  0  0  0
   32.3110    7.1419   26.4558 C   0  0  0  0  0  0
   33.1844    6.8026   27.6741 C   0  0  0  0  0  0
   34.6762    6.9888   27.3927 C   0  0  0  0  0  0
   35.2205    6.0380   26.3305 C   0  0  0  0  0  0
   36.7155    6.2124   25.9692 C   0  0  0  0  0  0
   37.1446    5.3846   24.7091 C   0  0  0  0  0  0
   36.4082    5.8025   23.4698 C   0  0  0  0  0  0
   35.2151    5.3583   23.0602 C   0  0  0  0  0  0
   34.5617    5.8411   21.8290 C   0  0  0  0  0  0
   35.2311    6.8548   21.0089 C   0  0  0  0  0  0
   36.4243    7.3260   21.3668 C   0  0  0  0  0  0
   37.0791    6.8222   22.6139 C   0  0  0  0  0  0
   38.8737   10.2472   23.2037 C   0  0  0  0  0  0
   32.6189   13.2251   22.7270 C   0  0  0  0  0  0
   30.0944   10.8737   24.5663 C   0  0  0  0  0  0
   32.6302    8.3590   23.6080 C   0  0  0  0  0  0
   30.8381    6.7744   26.7412 C   0  0  0  0  0  0
   35.2904    7.7847   29.6001 C   0  0  0  0  0  0
   37.0377    7.6707   25.8173 C   0  0  0  0  0  0
   34.4359    2.9642   23.4952 C   0  0  0  0  0  0
   33.4601    5.1628   28.8518 H   0  0  0  0  0  0
   37.4596    7.9877   19.7494 H   0  0  0  0  0  0
   29.3044   11.5528   22.7932 H   0  0  0  0  0  0
   28.1175   11.0822   24.0394 H   0  0  0  0  0  0
  1 12  2  0  0  0
  2 17  1  0  0  0
  2 34  1  0  0  0
  3 18  1  0  0  0
  3 35  1  0  0  0
  4 35  2  0  0  0
  5 22  1  0  0  0
  6 23  1  0  0  0
  6 38  1  0  0  0
  7 28  1  0  0  0
  7 40  1  0  0  0
  8 29  2  0  0  0
  9 32  2  0  0  0
 10 12  1  0  0  0
 10 31  1  0  0  0
 11 35  1  0  0  0
 12 13  1  0  0  0
 13 14  2  0  0  0
 13 33  1  0  0  0
 14 15  1  0  0  0
 15 16  2  0  0  0
 16 17  1  0  0  0
 17 18  1  0  0  0
 18 19  1  0  0  0
 19 20  2  0  0  0
 19 36  1  0  0  0
 20 21  1  0  0  0
 21 22  1  0  0  0
 21 37  1  0  0  0
 22 23  1  0  0  0
 23 24  1  0  0  0
 24 25  1  0  0  0
 25 26  1  0  0  0
 25 39  1  0  0  0
 26 27  1  0  0  0
 27 28  2  0  0  0
 27 32  1  0  0  0
 28 29  1  0  0  0
 29 30  1  0  0  0
 30 31  2  0  0  0
 31 32  1  0  0  0
  5 41  1  0  0  0
 10 42  1  0  0  0
 11 43  1  0  0  0
 11 44  1  0  0  0
M  END
>  <CHROM.0>
63.48513784,-57.77171518,176.23603766,-148.67455991,-175.41500375,-68.41574180

>  <CHROM.1>
155.47231260,-166.91108769,0.80092743,-179.60656273,-72.37561126,-99.75343432
34.53055627,8.23068803,24.29678258,-0.12087857,0.61050264,-0.59672648

>  <Name>
L_1YET

>  <RI>
0

>  <Rbt.Current_Directory>
/home/daniel/Dropbox/WORK/rDock_2013.1_src_DAG/bin

>  <Rbt.Executable>
rbdock ($Id: //depot/dev/client3/rdock/2013.1/src/exe/rbdock.cxx#4 $)

>  <Rbt.Library>
libRbt.so (2013.1, Build901 2013/11/27)

>  <Rbt.Parameter_File>
/home/daniel/dev/rdock-code//data/scripts/dock.prm

>  <Rbt.Receptor>
1YET_test.prm

>  <SCORE>
-45.7385

>  <SCORE.INTER>
-25.8768

>  <SCORE.INTER.CONST>
1

>  <SCORE.INTER.POLAR>
-2.47322

>  <SCORE.INTER.REPUL>
0

>  <SCORE.INTER.ROT>
5

>  <SCORE.INTER.VDW>
-27.8678

>  <SCORE.INTER.norm>
-0.646919

>  <SCORE.INTRA>
-10.2153

>  <SCORE.INTRA.DIHEDRAL>
-6.49932

>  <SCORE.INTRA.DIHEDRAL.0>
15.3889

>  <SCORE.INTRA.POLAR>
0

>  <SCORE.INTRA.POLAR.0>
0

>  <SCORE.INTRA.REPUL>
0

>  <SCORE.INTRA.REPUL.0>
0

>  <SCORE.INTRA.VDW>
-6.96568

>  <SCORE.INTRA.VDW.0>
7.09596

>  <SCORE.INTRA.norm>
-0.255383

>  <SCORE.RESTR>
0.0637448

>  <SCORE.RESTR.CAVITY>
0

>  <SCORE.RESTR.PHARMA>
0.0637448

>  <SCORE.RESTR.PHARMA.con_1>
0.0637448

>  <SCORE.RESTR.PHARMA.con_2>
0

>  <SCORE.RESTR.norm>
0.00159362

>  <SCORE.SYSTEM>
-9.71009

>  <SCORE.SYSTEM.CONST>
0

>  <SCORE.SYSTEM.DIHEDRAL>
2.4268

>  <SCORE.SYSTEM.POLAR>
-2.99262

>  <SCORE.SYSTEM.VDW>
-0.748577

>  <SCORE.SYSTEM.norm>
-0.242752

>  <SCORE.heavy>
40

>  <SCORE.norm>
-1.14346

$$$$
L_1YET
  rDOCK(R)          3D
libRbt.so/2013.1/901 2013/11/27
 44 45  0  0  0  0  0  0  0  0999 V2000
   38.3247   10.3092   20.2493 O   0  0  0  0  0  0
   33.4475   12.8942   23.9328 O   0  0  0  0  0  0
   31.3180   11.1312   23.9624 O   0  0  0  0  0  0
   29.9903   10.4975   25.7271 O   0  0  0  0  0  0
   32.9664    5.4271   28.0015 O   0  0  0  0  0  0
   35.4884    6.7419   28.5787 O   0  0  0  0  0  0
   34.5571    4.4136   23.7681 O   0  0  0  0  0  0
   33.5323    5.4600   21.4741 O   0  0  0  0  0  0
   38.2371    7.3457   22.9149 O   0  0  0  0  0  0
   37.2460    8.3715   20.7009 N   0  0  0  0  0  0
   29.1192   11.2174   23.7674 N   0  0  0  0  0  0
   37.7457    9.6402   21.0708 C   0  0  0  0  0  0
   37.6175   10.0728   22.4996 C   0  0  0  0  0  0
   36.3820   10.2283   23.0425 C   0  0  0  0  0  0
   36.1064   10.6441   24.4144 C   0  0  0  0  0  0
   34.9471   11.1684   24.8636 C   0  0  0  0  0  0
   33.7063   11.4420   24.0884 C   0  0  0  0  0  0
   32.4089   10.8037   24.7585 C   0  0  0  0  0  0
   32.4941    9.1785   24.9080 C   0  0  0  0  0  0
   32.3687    8.6093   26.0968 C   0  0  0  0  0  0
   32.3665    7.1496   26.4421 C   0  0  0  0  0  0
   33.2428    6.8056   27.6571 C   0  0  0  0  0  0
   34.7331    7.0059   27.3770 C   0  0  0  0  0  0
   35.2843    6.0692   26.3059 C   0  0  0  0  0  0
   36.7778    6.2584   25.9460 C   0  0  0  0  0  0
   37.2129    5.4457   24.6781 C   0  0  0  0  0  0
   36.4731    5.8695   23.4429 C   0  0  0  0  0  0
   35.2833    5.4201   23.0295 C   0  0  0  0  0  0
   34.6259    5.9092   21.8029 C   0  0  0  0  0  0
   35.2872    6.9357   20.9922 C   0  0  0  0  0  0
   36.4768    7.4127   21.3543 C   0  0  0  0  0  0
   37.1359    6.9023   22.5965 C   0  0  0  0  0  0
   38.9043   10.3352   23.2178 C   0  0  0  0  0  0
   32.6504   13.2721   22.7546 C   0  0  0  0  0  0
   30.1211   10.9079   24.5983 C   0  0  0  0  0  0
   32.6756    8.3956   23.6058 C   0  0  0  0  0  0
   30.8965    6.7681   26.7244 C   0  0  0  0  0  0
   35.3382    7.7836   29.5935 C   0  0  0  0  0  0
   37.0888    7.7205   25.8076 C   0  0  0  0  0  0
   34.2105    3.1135   23.2682 C   0  0  0  0  0  0
   33.5158    5.1634   28.8319 H   0  0  0  0  0  0
   37.5066    8.0974   19.7429 H   0  0  0  0  0  0
   29.3248   11.5617   22.8186 H   0  0  0  0  0  0
   28.1424   11.1114   24.0766 H   0  0  0  0  0  0
  1 12  2  0  0  0
  2 17  1  0  0  0
  2 34  1  0  0  0
  3 18  1  0  0  0
  3 35  1  0  0  0
  4 35  2  0  0  0
  5 22  1  0  0  0
  6 23  1  0  0  0
  6 38  1  0  0  0
  7 28  1  0  0  0
  7 40  1  0  0  0
  8 29  2  0  0  0
  9 32  2  0  0  0
 10 12  1  0  0  0
 10 31  1  0  0  0
 11 35  1  0  0  0
 12 13  1  0  0  0
 13 14  2  0  0  0
 13 33  1  0  0  0
 14 15  1  0  0  0
 15 16  2  0  0  0
 16 17  1  0  0  0
 17 18  1  0  0  0
 18 19  1  0  0  0
 19 20  2  0  0  0
 19 36  1  0  0  0
 20 21  1  0  0  0
 21 22  1  0  0  0
 21 37  1  0  0  0
 22 23  1  0  0  0
 23 24  1  0  0  0
 24 25  1  0  0  0
 25 26  1  0  0  0
 25 39  1  0  0  0
 26 27  1  0  0  0
 27 28  2  0  0  0
 27 32  1  0  0  0
 28 29  1  0  0  0
 29 30  1  0  0  0
 30 31  2  0  0  0
 31 32  1  0  0  0
  5 41  1  0  0  0
 10 42  1  0  0  0
 11 43  1  0  0  0
 11 44  1  0  0  0
M  END
>  <CHROM.0>
63.29380465,-58.21643649,-64.98492263,86.15768674,8.44365207,-68.90614377

>  <CHROM.1>
154.24580596,-165.64523969,1.25153562,-178.36979079,-72.18328921,-117.88669453
34.56923012,8.28059927,24.28891238,-0.09495070,0.60722019,-0.58778514

>  <Name>
L_1YET

>  <RI>
0

>  <Rbt.Current_Directory>
/home/daniel/Dropbox/WORK/rDock_2013.1_src_DAG/bin

>  <Rbt.Executable>
rbdock ($Id: //depot/dev/client3/rdock/2013.1/src/exe/rbdock.cxx#4 $)

>  <Rbt.Library>
libRbt.so (2013.1, Build901 2013/11/27)

>  <Rbt.Parameter_File>
/home/daniel/dev/rdock-code//data/scripts/dock.prm

>  <Rbt.Receptor>
1YET_test.prm

>  <SCORE>
-45.7331

>  <SCORE.INTER>
-25.7826

>  <SCORE.INTER.CONST>
1

>  <SCORE.INTER.POLAR>
-2.4969

>  <SCORE.INTER.REPUL>
0

>  <SCORE.INTER.ROT>
5

>  <SCORE.INTER.VDW>
-27.6931

>  <SCORE.INTER.norm>
-0.644565

>  <SCORE.INTRA>
-10.3231

>  <SCORE.INTRA.DIHEDRAL>
-7.03877

>  <SCORE.INTRA.DIHEDRAL.0>
15.3889

>  <SCORE.INTRA.POLAR>
0

>  <SCORE.INTRA.POLAR.0>
0

>  <SCORE.INTRA.REPUL>
0

>  <SCORE.INTRA.REPUL.0>
0

>  <SCORE.INTRA.VDW>
-6.80373

>  <SCORE.INTRA.VDW.0>
7.09596

>  <SCORE.INTRA.norm>
-0.258078

>  <SCORE.RESTR>
0.0609308

>  <SCORE.RESTR.CAVITY>
0

>  <SCORE.RESTR.PHARMA>
0.0609308

>  <SCORE.RESTR.PHARMA.con_1>
0.0609308

>  <SCORE.RESTR.PHARMA.con_2>
0

>  <SCORE.RESTR.norm>
0.00152327

>  <SCORE.SYSTEM>
-9.68837

>  <SCORE.SYSTEM.CONST>
0

>  <SCORE.SYSTEM.DIHEDRAL>
2.06632

>  <SCORE.SYSTEM.POLAR>
-2.87005

>  <SCORE.SYSTEM.VDW>
-0.963372

>  <SCORE.SYSTEM.norm>
-0.242209

>  <SCORE.heavy>
40

>  <SCORE.norm>
-1.14333

$$$$
L_1YET
  rDOCK(R)          3D
libRbt.so/2013.1/901 2013/11/27
 44 45  0  0  0  0  0  0  0  0999 V2000
   38.3523   10.3236   20.2897 O   0  0  0  0  0  0
   33.4786   12.8994   23.9844 O   0  0  0  0  0  0
   31.3370   11.1510   23.9853 O   0  0  0  0  0  0
   30.0009   10.5867   25.7672 O   0  0  0  0  0  0
   32.9301    5.3890   27.9640 O   0  0  0  0  0  0
   35.4589    6.6795   28.5661 O   0  0  0  0  0  0
   34.5304    4.4138   23.7252 O   0  0  0  0  0  0
   33.5218    5.4938   21.4396 O   0  0  0  0  0  0
   38.2338    7.3300   22.9203 O   0  0  0  0  0  0
   37.2586    8.3883   20.7146 N   0  0  0  0  0  0
   29.1395   11.2563   23.7855 N   0  0  0  0  0  0
   37.7656    9.6491   21.1012 C   0  0  0  0  0  0
   37.6348   10.0660   22.5344 C   0  0  0  0  0  0
   36.3982   10.2237   23.0744 C   0  0  0  0  0  0
   36.1201   10.6255   24.4500 C   0  0  0  0  0  0
   34.9626   11.1525   24.9008 C   0  0  0  0  0  0
   33.7269   11.4437   24.1241 C   0  0  0  0  0  0
   32.4225   10.8067   24.7817 C   0  0  0  0  0  0
   32.4959    9.1793   24.9125 C   0  0  0  0  0  0
   32.3619    8.5972   26.0941 C   0  0  0  0  0  0
   32.3483    7.1337   26.4225 C   0  0  0  0  0  0
   33.2174    6.7695   27.6367 C   0  0  0  0  0  0
   34.7101    6.9626   27.3647 C   0  0  0  0  0  0
   35.2591    6.0347   26.2849 C   0  0  0  0  0  0
   36.7553    6.2177   25.9329 C   0  0  0  0  0  0
   37.1897    5.4168   24.6573 C   0  0  0  0  0  0
   36.4576    5.8600   23.4243 C   0  0  0  0  0  0
   35.2664    5.4237   23.0011 C   0  0  0  0  0  0
   34.6172    5.9316   21.7778 C   0  0  0  0  0  0
   35.2888    6.9628   20.9816 C   0  0  0  0  0  0
   36.4802    7.4273   21.3538 C   0  0  0  0  0  0
   37.1308    6.8979   22.5925 C   0  0  0  0  0  0
   38.9205   10.3111   23.2606 C   0  0  0  0  0  0
   32.6703   13.2944   22.8196 C   0  0  0  0  0  0
   30.1372   10.9609   24.6265 C   0  0  0  0  0  0
   32.6771    8.4103   23.6020 C   0  0  0  0  0  0
   30.8746    6.7591   26.6946 C   0  0  0  0  0  0
   35.2252    7.6518   29.6326 C   0  0  0  0  0  0
   37.0769    7.6791   25.8128 C   0  0  0  0  0  0
   35.0128    3.0944   24.0200 C   0  0  0  0  0  0
   33.4960    5.1032   28.7758 H   0  0  0  0  0  0
   37.5210    8.1235   19.7545 H   0  0  0  0  0  0
   29.3496   11.5690   22.8268 H   0  0  0  0  0  0
   28.1613   11.1709   24.0967 H   0  0  0  0  0  0
  1 12  2  0  0  0
  2 17  1  0  0  0
  2 34  1  0  0  0
  3 18  1  0  0  0
  3 35  1  0  0  0
  4 35  2  0  0  0
  5 22  1  0  0  0
  6 23  1  0  0  0
  6 38  1  0  0  0
  7 28  1  0  0  0
  7 40  1  0  0  0
  8 29  2  0  0  0
  9 32  2  0  0  0
 10 12  1  0  0  0
 10 31  1  0  0  0
 11 35  1  0  0  0
 12 13  1  0  0  0
 13 14  2  0  0  0
 13 33  1  0  0  0
 14 15  1  0  0  0
 15 16  2  0  0  0
 16 17  1  0  0  0
 17 18  1  0  0  0
 18 19  1  0  0  0
 19 20  2  0  0  0
 19 36  1  0  0  0
 20 21  1  0  0  0
 21 22  1  0  0  0
 21 37  1  0  0  0
 22 23  1  0  0  0
 23 24  1  0  0  0
 24 25  1  0  0  0
 25 26  1  0  0  0
 25 39  1  0  0  0
 26 27  1  0  0  0
 27 28  2  0  0  0
 27 32  1  0  0  0
 28 29  1  0  0  0
 29 30  1  0  0  0
 30 31  2  0  0  0
 31 32  1  0  0  0
  5 41  1  0  0  0
 10 42  1  0  0  0
 11 43  1  0  0  0
 11 44  1  0  0  0
M  END
>  <CHROM.0>
63.57861724,-59.93762988,173.93148036,-152.66909803,0.82159371,-68.07089400

>  <CHROM.1>
155.20072110,-164.08183836,2.61861262,179.91606412,-67.40114465,-58.43469185
34.58689890,8.27488439,24.31533440,-0.14573509,0.60522024,-0.59433363

>  <Name>
L_1YET

>  <RI>
0

>  <Rbt.Current_Directory>
/home/daniel/Dropbox/WORK/rDock_2013.1_src_DAG/bin

>  <Rbt.Executable>
rbdock ($Id: //depot/dev/client3/rdock/2013.1/src/exe/rbdock.cxx#4 $)

>  <Rbt.Library>
libRbt.so (2013.1, Build901 2013/11/27)

>  <Rbt.Parameter_File>
/home/daniel/dev/rdock-code//data/scripts/dock.prm

>  <Rbt.Receptor>
1YET_test.prm

>  <SCORE>
-45.6579

>  <SCORE.INTER>
-25.431

>  <SCORE.INTER.CONST>
1

>  <SCORE.INTER.POLAR>
-2.45655

>  <SCORE.INTER.REPUL>
0

>  <SCORE.INTER.ROT>
5

>  <SCORE.INTER.VDW>
-27.4787

>  <SCORE.INTER.norm>
-0.635775

>  <SCORE.INTRA>
-10.2212

>  <SCORE.INTRA.DIHEDRAL>
-7.68083

>  <SCORE.INTRA.DIHEDRAL.0>
15.3889

>  <SCORE.INTRA.POLAR>
0

>  <SCORE.INTRA.POLAR.0>
0

>  <SCORE.INTRA.REPUL>
0

>  <SCORE.INTRA.REPUL.0>
0

>  <SCORE.INTRA.VDW>
-6.38078

>  <SCORE.INTRA.VDW.0>
7.09596

>  <SCORE.INTRA.norm>
-0.25553

>  <SCORE.RESTR>
0.0617851

>  <SCORE.RESTR.CAVITY>
0

>  <SCORE.RESTR.PHARMA>
0.0617851

>  <SCORE.RESTR.PHARMA.con_1>
0.0617851

>  <SCORE.RESTR.PHARMA.con_2>
0

>  <SCORE.RESTR.norm>
0.00154463

>  <SCORE.SYSTEM>
-10.0675

>  <SCORE.SYSTEM.CONST>
0

>  <SCORE.SYSTEM.DIHEDRAL>
2.02852

>  <SCORE.SYSTEM.POLAR>
-2.99404

>  <SCORE.SYSTEM.REPUL>
0.00233045

>  <SCORE.SYSTEM.VDW>
-0.913645

>  <SCORE.SYSTEM.norm>
-0.251687

>  <SCORE.heavy>
40

>  <SCORE.norm>
-1.14145

$$$$
L_1YET
  rDOCK(R)          3D
libRbt.so/2013.1/901 2013/11/27
 44 45  0  0  0  0  0  0  0  0999 V2000
   38.3039    9.8757   19.9814 O   0  0  0  0  0  0
   33.4925   12.7519   23.5333 O   0  0  0  0  0  0
   31.3355   11.0287   23.6784 O   0  0  0  0  0  0
   30.0896   11.1940   25.6017 O   0  0  0  0  0  0
   32.9188    5.5458   28.0372 O   0  0  0  0  0  0
   35.4651    6.8510   28.5220 O   0  0  0  0  0  0
   34.4657    4.2594   23.8621 O   0  0  0  0  0  0
   33.4429    5.1856   21.5162 O   0  0  0  0  0  0
   38.1864    7.0758   22.8174 O   0  0  0  0  0  0
   37.1975    7.9858   20.5524 N   0  0  0  0  0  0
   29.1390   11.2255   23.5492 N   0  0  0  0  0  0
   37.7197    9.2657   20.8441 C   0  0  0  0  0  0
   37.6077    9.7836   22.2456 C   0  0  0  0  0  0
   36.3783    9.9908   22.7853 C   0  0  0  0  0  0
   36.1183   10.4910   24.1319 C   0  0  0  0  0  0
   34.9704   11.0596   24.5558 C   0  0  0  0  0  0
   33.7292   11.3073   23.7727 C   0  0  0  0  0  0
   32.4261   10.7308   24.4863 C   0  0  0  0  0  0
   32.4864    9.1160   24.7308 C   0  0  0  0  0  0
   32.3596    8.6198   25.9517 C   0  0  0  0  0  0
   32.3364    7.1832   26.3824 C   0  0  0  0  0  0
   33.2149    6.8969   27.6107 C   0  0  0  0  0  0
   34.7064    7.0561   27.3111 C   0  0  0  0  0  0
   35.2356    6.0492   26.2940 C   0  0  0  0  0  0
   36.7296    6.1926   25.9153 C   0  0  0  0  0  0
   37.1435    5.2998   24.6951 C   0  0  0  0  0  0
   36.4025    5.6622   23.4412 C   0  0  0  0  0  0
   35.2030    5.2087   23.0615 C   0  0  0  0  0  0
   34.5456    5.6356   21.8119 C   0  0  0  0  0  0
   35.2180    6.6017   20.9385 C   0  0  0  0  0  0
   36.4173    7.0796   21.2653 C   0  0  0  0  0  0
   37.0762    6.6325   22.5317 C   0  0  0  0  0  0
   38.9031   10.0667   22.9401 C   0  0  0  0  0  0
   33.4726   13.5978   24.7376 C   0  0  0  0  0  0
   30.1715   11.1542   24.3970 C   0  0  0  0  0  0
   32.6469    8.2551   23.4760 C   0  0  0  0  0  0
   30.8623    6.8429   26.6948 C   0  0  0  0  0  0
   35.3447    7.9566   29.4710 C   0  0  0  0  0  0
   37.0630    7.6387   25.6894 C   0  0  0  0  0  0
   34.2036    2.8972   23.4930 C   0  0  0  0  0  0
   33.4698    5.3221   28.8782 H   0  0  0  0  0  0
   37.4474    7.6515   19.6107 H   0  0  0  0  0  0
   29.3030   11.1833   22.5332 H   0  0  0  0  0  0
   28.1800   11.3225   23.9126 H   0  0  0  0  0  0
  1 12  2  0  0  0
  2 17  1  0  0  0
  2 34  1  0  0  0
  3 18  1  0  0  0
  3 35  1  0  0  0
  4 35  2  0  0  0
  5 22  1  0  0  0
  6 23  1  0  0  0
  6 38  1  0  0  0
  7 28  1  0  0  0
  7 40  1  0  0  0
  8 29  2  0  0  0
  9 32  2  0  0  0
 10 12  1  0  0  0
 10 31  1  0  0  0
 11 35  1  0  0  0
 12 13  1  0  0  0
 13 14  2  0  0  0
 13 33  1  0  0  0
 14 15  1  0  0  0
 15 16  2  0  0  0
 16 17  1  0  0  0
 17 18  1  0  0  0
 18 19  1  0  0  0
 19 20  2  0  0  0
 19 36  1  0  0  0
 20 21  1  0  0  0
 21 22  1  0  0  0
 21 37  1  0  0  0
 22 23  1  0  0  0
 23 24  1  0  0  0
 24 25  1  0  0  0
 25 26  1  0  0  0
 25 39  1  0  0  0
 26 27  1  0  0  0
 27 28  2  0  0  0
 27 32  1  0  0  0
 28 29  1  0  0  0
 29 30  1  0  0  0
 30 31  2  0  0  0
 31 32  1  0  0  0
  5 41  1  0  0  0
 10 42  1  0  0  0
 11 43  1  0  0  0
 11 44  1  0  0  0
M  END
>  <CHROM.0>
63.28775846,-58.85566718,51.24695758,-18.53508849,-177.51139579,173.71175028

>  <CHROM.1>
-54.33446473,-152.07285106,9.81282445,-178.41193234,-72.53793883,-111.70299904
34.56981370,8.19026738,24.22620727,-0.22593616,0.67135842,-0.54681599

>  <Name>
L_1YET

>  <RI>
0

>  <Rbt.Current_Directory>
/home/daniel/Dropbox/WORK/rDock_2013.1_src_DAG/bin

>  <Rbt.Executable>
rbdock ($Id: //depot/dev/client3/rdock/2013.1/src/exe/rbdock.cxx#4 $)

>  <Rbt.Library>
libRbt.so (2013.1, Build901 2013/11/27)

>  <Rbt.Parameter_File>
/home/daniel/dev/rdock-code//data/scripts/dock.prm

>  <Rbt.Receptor>
1YET_test.prm

>  <SCORE>
-45.5984

>  <SCORE.INTER>
-28.3224

>  <SCORE.INTER.CONST>
1

>  <SCORE.INTER.POLAR>
-3.27195

>  <SCORE.INTER.REPUL>
0

>  <SCORE.INTER.ROT>
5

>  <SCORE.INTER.VDW>
-27.5978

>  <SCORE.INTER.norm>
-0.708061

>  <SCORE.INTRA>
-9.5918

>  <SCORE.INTRA.DIHEDRAL>
-6.32931

>  <SCORE.INTRA.DIHEDRAL.0>
15.3889

>  <SCORE.INTRA.POLAR>
0

>  <SCORE.INTRA.POLAR.0>
0

>  <SCORE.INTRA.REPUL>
0

>  <SCORE.INTRA.REPUL.0>
0

>  <SCORE.INTRA.VDW>
-6.42714

>  <SCORE.INTRA.VDW.0>
7.09596

>  <SCORE.INTRA.norm>
-0.239795

>  <SCORE.RESTR>
0.0497277

>  <SCORE.RESTR.CAVITY>
0

>  <SCORE.RESTR.PHARMA>
0.0497277

>  <SCORE.RESTR.PHARMA.con_1>
0.0497277

>  <SCORE.RESTR.PHARMA.con_2>
0

>  <SCORE.RESTR.norm>
0.00124319

>  <SCORE.SYSTEM>
-7.73389

>  <SCORE.SYSTEM.CONST>
0

>  <SCORE.SYSTEM.DIHEDRAL>
3.2732

>  <SCORE.SYSTEM.POLAR>
-2.29711

>  <SCORE.SYSTEM.VDW>
-1.56033

>  <SCORE.SYSTEM.norm>
-0.193347

>  <SCORE.heavy>
40

>  <SCORE.norm>
-1.13996

$$$$
L_1YET
  rDOCK(R)          3D
libRbt.so/2013.1/901 2013/11/27
 44 45  0  0  0  0  0  0  0  0999 V2000
   38.3018    9.8607   19.9138 O   0  0  0  0  0  0
   33.4771   12.7153   23.4651 O   0  0  0  0  0  0
   31.3342   10.9757   23.6240 O   0  0  0  0  0  0
   30.0199   10.5323   25.4556 O   0  0  0  0  0  0
   32.9724    5.5260   28.0040 O   0  0  0  0  0  0
   35.5096    6.8535   28.4759 O   0  0  0  0  0  0
   34.5184    4.2323   23.8308 O   0  0  0  0  0  0
   33.4821    5.1395   21.4833 O   0  0  0  0  0  0
   38.2139    7.0733   22.7631 O   0  0  0  0  0  0
   37.2119    7.9647   20.4964 N   0  0  0  0  0  0
   29.1379   11.1549   23.4676 N   0  0  0  0  0  0
   37.7247    9.2501   20.7808 C   0  0  0  0  0  0
   37.6123    9.7736   22.1802 C   0  0  0  0  0  0
   36.3828    9.9736   22.7222 C   0  0  0  0  0  0
   36.1223   10.4781   24.0671 C   0  0  0  0  0  0
   34.9711   11.0395   24.4915 C   0  0  0  0  0  0
   33.7259   11.2737   23.7105 C   0  0  0  0  0  0
   32.4293   10.6903   24.4304 C   0  0  0  0  0  0
   32.5030    9.0771   24.6822 C   0  0  0  0  0  0
   32.3833    8.5857   25.9057 C   0  0  0  0  0  0
   32.3727    7.1510   26.3432 C   0  0  0  0  0  0
   33.2567    6.8774   27.5704 C   0  0  0  0  0  0
   34.7460    7.0470   27.2661 C   0  0  0  0  0  0
   35.2806    6.0395   26.2522 C   0  0  0  0  0  0
   36.7724    6.1930   25.8689 C   0  0  0  0  0  0
   37.1901    5.2978   24.6517 C   0  0  0  0  0  0
   36.4429    5.6485   23.3982 C   0  0  0  0  0  0
   35.2461    5.1837   23.0238 C   0  0  0  0  0  0
   34.5820    5.5995   21.7740 C   0  0  0  0  0  0
   35.2444    6.5668   20.8943 C   0  0  0  0  0  0
   36.4408    7.0558   21.2157 C   0  0  0  0  0  0
   37.1065    6.6198   22.4824 C   0  0  0  0  0  0
   38.9073   10.0703   22.8699 C   0  0  0  0  0  0
   33.4167   13.5607   24.6684 C   0  0  0  0  0  0
   30.1434   10.8559   24.2981 C   0  0  0  0  0  0
   32.6671    8.2117   23.4310 C   0  0  0  0  0  0
   30.9022    6.8005   26.6611 C   0  0  0  0  0  0
   35.3511    7.9437   29.4371 C   0  0  0  0  0  0
   37.0937    7.6407   25.6353 C   0  0  0  0  0  0
   34.9982    2.9330   24.2074 C   0  0  0  0  0  0
   33.5435    5.3031   28.8317 H   0  0  0  0  0  0
   37.4620    7.6281   19.5557 H   0  0  0  0  0  0
   29.3371   11.4216   22.4929 H   0  0  0  0  0  0
   28.1647   11.1184   23.8031 H   0  0  0  0  0  0
  1 12  2  0  0  0
  2 17  1  0  0  0
  2 34  1  0  0  0
  3 18  1  0  0  0
  3 35  1  0  0  0
  4 35  2  0  0  0
  5 22  1  0  0  0
  6 23  1  0  0  0
  6 38  1  0  0  0
  7 28  1  0  0  0
  7 40  1  0  0  0
  8 29  2  0  0  0
  9 32  2  0  0  0
 10 12  1  0  0  0
 10 31  1  0  0  0
 11 35  1  0  0  0
 12 13  1  0  0  0
 13 14  2  0  0  0
 13 33  1  0  0  0
 14 15  1  0  0  0
 15 16  2  0  0  0
 16 17  1  0  0  0
 17 18  1  0  0  0
 18 19  1  0  0  0
 19 20  2  0  0  0
 19 36  1  0  0  0
 20 21  1  0  0  0
 21 22  1  0  0  0
 21 37  1  0  0  0
 22 23  1  0  0  0
 23 24  1  0  0  0
 24 25  1  0  0  0
 25 26  1  0  0  0
 25 39  1  0  0  0
 26 27  1  0  0  0
 27 28  2  0  0  0
 27 32  1  0  0  0
 28 29  1  0  0  0
 29 30  1  0  0  0
 30 31  2  0  0  0
 31 32  1  0  0  0
  5 41  1  0  0  0
 10 42  1  0  0  0
 11 43  1  0  0  0
 11 44  1  0  0  0
M  END
>  <CHROM.0>
62.41530017,-57.90748819,172.27410725,-139.86417052,6.41329795,-67.70949243

>  <CHROM.1>
-55.95197171,-163.16817841,-0.53112241,-179.70133417,-70.80299871,-59.05213940
34.60761814,8.14456905,24.19204301,-0.17075876,0.65096562,-0.59276175

>  <Name>
L_1YET

>  <RI>
0

>  <Rbt.Current_Directory>
/home/daniel/Dropbox/WORK/rDock_2013.1_src_DAG/bin

>  <Rbt.Executable>
rbdock ($Id: //depot/dev/client3/rdock/2013.1/src/exe/rbdock.cxx#4 $)

>  <Rbt.Library>
libRbt.so (2013.1, Build901 2013/11/27)

>  <Rbt.Parameter_File>
/home/daniel/dev/rdock-code//data/scripts/dock.prm

>  <Rbt.Receptor>
1YET_test.prm

>  <SCORE>
-45.1992

>  <SCORE.INTER>
-25.1306

>  <SCORE.INTER.CONST>
1

>  <SCORE.INTER.POLAR>
-2.36959

>  <SCORE.INTER.REPUL>
0.00243527

>  <SCORE.INTER.ROT>
5

>  <SCORE.INTER.VDW>
-27.4862

>  <SCORE.INTER.norm>
-0.628264

>  <SCORE.INTRA>
-10.8454

>  <SCORE.INTRA.DIHEDRAL>
-9.76985

>  <SCORE.INTRA.DIHEDRAL.0>
15.3889

>  <SCORE.INTRA.POLAR>
0

>  <SCORE.INTRA.POLAR.0>
0

>  <SCORE.INTRA.REPUL>
0

>  <SCORE.INTRA.REPUL.0>
0

>  <SCORE.INTRA.VDW>
-5.96048

>  <SCORE.INTRA.VDW.0>
7.09596

>  <SCORE.INTRA.norm>
-0.271135

>  <SCORE.RESTR>
0.0266584

>  <SCORE.RESTR.CAVITY>
0

>  <SCORE.RESTR.PHARMA>
0.0266584

>  <SCORE.RESTR.PHARMA.con_1>
0.0266584

>  <SCORE.RESTR.PHARMA.con_2>
0

>  <SCORE.RESTR.norm>
0.00066646

>  <SCORE.SYSTEM>
-9.24986

>  <SCORE.SYSTEM.CONST>
0

>  <SCORE.SYSTEM.DIHEDRAL>
3.26415

>  <SCORE.SYSTEM.POLAR>
-2.98576

>  <SCORE.SYSTEM.VDW>
-0.730343

>  <SCORE.SYSTEM.norm>
-0.231246

>  <SCORE.heavy>
40

>  <SCORE.norm>
-1.12998

$$$$
L_1YET
  rDOCK(R)          3D
libRbt.so/2013.1/901 2013/11/27
 44 45  0  0  0  0  0  0  0  0999 V2000
   38.3537    9.8940   19.9133 O   0  0  0  0  0  0
   33.5154   12.7230   23.4667 O   0  0  0  0  0  0
   31.3758   10.9783   23.6132 O   0  0  0  0  0  0
   30.0529   10.4081   25.4030 O   0  0  0  0  0  0
   33.0157    5.5126   27.9726 O   0  0  0  0  0  0
   35.5491    6.8432   28.4559 O   0  0  0  0  0  0
   34.5734    4.2406   23.7971 O   0  0  0  0  0  0
   33.5403    5.1561   21.4514 O   0  0  0  0  0  0
   38.2653    7.0938   22.7500 O   0  0  0  0  0  0
   37.2664    7.9933   20.4851 N   0  0  0  0  0  0
   29.1815   11.1879   23.4664 N   0  0  0  0  0  0
   37.7760    9.2784   20.7764 C   0  0  0  0  0  0
   37.6595    9.7955   22.1778 C   0  0  0  0  0  0
   36.4283    9.9906   22.7180 C   0  0  0  0  0  0
   36.1639   10.4885   24.0645 C   0  0  0  0  0  0
   35.0106   11.0457   24.4888 C   0  0  0  0  0  0
   33.7666   11.2809   23.7063 C   0  0  0  0  0  0
   32.4697   10.6916   24.4207 C   0  0  0  0  0  0
   32.5462    9.0775   24.6655 C   0  0  0  0  0  0
   32.4249    8.5804   25.8866 C   0  0  0  0  0  0
   32.4162    7.1437   26.3177 C   0  0  0  0  0  0
   33.2982    6.8665   27.5456 C   0  0  0  0  0  0
   34.7878    7.0405   27.2453 C   0  0  0  0  0  0
   35.3266    6.0387   26.2282 C   0  0  0  0  0  0
   36.8189    6.1969   25.8488 C   0  0  0  0  0  0
   37.2411    5.3079   24.6285 C   0  0  0  0  0  0
   36.4960    5.6626   23.3749 C   0  0  0  0  0  0
   35.3009    5.1971   22.9959 C   0  0  0  0  0  0
   34.6387    5.6170   21.7465 C   0  0  0  0  0  0
   35.3010    6.5896   20.8725 C   0  0  0  0  0  0
   36.4957    7.0796   21.1987 C   0  0  0  0  0  0
   37.1595    6.6393   22.4649 C   0  0  0  0  0  0
   38.9523   10.0918   22.8716 C   0  0  0  0  0  0
   33.4587   13.5643   24.6730 C   0  0  0  0  0  0
   30.1822   10.8178   24.2737 C   0  0  0  0  0  0
   32.7147    8.2179   23.4108 C   0  0  0  0  0  0
   30.9458    6.7888   26.6308 C   0  0  0  0  0  0
   35.3752    7.9218   29.4275 C   0  0  0  0  0  0
   37.1377    7.6462   25.6223 C   0  0  0  0  0  0
   34.3532    2.8670   23.4437 C   0  0  0  0  0  0
   33.5932    5.2837   28.7942 H   0  0  0  0  0  0
   37.5192    7.6613   19.5435 H   0  0  0  0  0  0
   29.3856   11.5263   22.5152 H   0  0  0  0  0  0
   28.2072   11.1343   23.7961 H   0  0  0  0  0  0
  1 12  2  0  0  0
  2 17  1  0  0  0
  2 34  1  0  0  0
  3 18  1  0  0  0
  3 35  1  0  0  0
  4 35  2  0  0  0
  5 22  1  0  0  0
  6 23  1  0  0  0
  6 38  1  0  0  0
  7 28  1  0  0  0
  7 40  1  0  0  0
  8 29  2  0  0  0
  9 32  2  0  0  0
 10 12  1  0  0  0
 10 31  1  0  0  0
 11 35  1  0  0  0
 12 13  1  0  0  0
 13 14  2  0  0  0
 13 33  1  0  0  0
 14 15  1  0  0  0
 15 16  2  0  0  0
 16 17  1  0  0  0
 17 18  1  0  0  0
 18 19  1  0  0  0
 19 20  2  0  0  0
 19 36  1  0  0  0
 20 21  1  0  0  0
 21 22  1  0  0  0
 21 37  1  0  0  0
 22 23  1  0  0  0
 23 24  1  0  0  0
 24 25  1  0  0  0
 25 26  1  0  0  0
 25 39  1  0  0  0
 26 27  1  0  0  0
 27 28  2  0  0  0
 27 32  1  0  0  0
 28 29  1  0  0  0
 29 30  1  0  0  0
 30 31  2  0  0  0
 31 32  1  0  0  0
  5 41  1  0  0  0
 10 42  1  0  0  0
 11 43  1  0  0  0
 11 44  1  0  0  0
M  END
>  <CHROM.0>
65.07567361,-60.88832022,173.99633952,61.18029805,12.23501936,-68.27673759

>  <CHROM.1>
-55.59988000,-164.82978527,-3.76435778,179.67001322,-70.18898599,-110.07100265
34.63476863,8.14628145,24.15566045,-0.15383893,0.65288704,-0.55868960

>  <Name>
L_1YET

>  <RI>
0

>  <Rbt.Current_Directory>
/home/daniel/Dropbox/WORK/rDock_2013.1_src_DAG/bin

>  <Rbt.Executable>
rbdock ($Id: //depot/dev/client3/rdock/2013.1/src/exe/rbdock.cxx#4 $)

>  <Rbt.Library>
libRbt.so (2013.1, Build901 2013/11/27)

>  <Rbt.Parameter_File>
/home/daniel/dev/rdock-code//data/scripts/dock.prm

>  <Rbt.Receptor>
1YET_test.prm

>  <SCORE>
-45.0552

>  <SCORE.INTER>
-23.3311

>  <SCORE.INTER.CONST>
1

>  <SCORE.INTER.POLAR>
-1.78405

>  <SCORE.INTER.REPUL>
0

>  <SCORE.INTER.ROT>
5

>  <SCORE.INTER.VDW>
-27.6654

>  <SCORE.INTER.norm>
-0.583278

>  <SCORE.INTRA>
-10.7349

>  <SCORE.INTRA.DIHEDRAL>
-9.24347

>  <SCORE.INTRA.DIHEDRAL.0>
15.3889

>  <SCORE.INTRA.POLAR>
0

>  <SCORE.INTRA.POLAR.0>
0

>  <SCORE.INTRA.REPUL>
0

>  <SCORE.INTRA.REPUL.0>
0

>  <SCORE.INTRA.VDW>
-6.11316

>  <SCORE.INTRA.VDW.0>
7.09596

>  <SCORE.INTRA.norm>
-0.268372

>  <SCORE.RESTR>
0.0153962

>  <SCORE.RESTR.CAVITY>
0

>  <SCORE.RESTR.PHARMA>
0.0153962

>  <SCORE.RESTR.PHARMA.con_1>
0.0153962

>  <SCORE.RESTR.PHARMA.con_2>
0

>  <SCORE.RESTR.norm>
0.000384906

>  <SCORE.SYSTEM>
-11.0046

>  <SCORE.SYSTEM.CONST>
0

>  <SCORE.SYSTEM.DIHEDRAL>
0.777875

>  <SCORE.SYSTEM.POLAR>
-2.98488

>  <SCORE.SYSTEM.REPUL>
0.0137037

>  <SCORE.SYSTEM.VDW>
-1.31343

>  <SCORE.SYSTEM.norm>
-0.275114

>  <SCORE.heavy>
40

>  <SCORE.norm>
-1.12638

$$$$
L_1YET
  rDOCK(R)          3D
libRbt.so/2013.1/901 2013/11/27
 44 45  0  0  0  0  0  0  0  0999 V2000
   37.6435    9.7232   20.1491 O   0  0  0  0  0  0
   32.5438   11.9945   23.7369 O   0  0  0  0  0  0
   30.6586    9.9872   23.9829 O   0  0  0  0  0  0
   29.5997   10.8397   25.8350 O   0  0  0  0  0  0
   33.0978    4.9233   28.4522 O   0  0  0  0  0  0
   35.4408    6.5919   28.8377 O   0  0  0  0  0  0
   34.7273    3.7411   24.2777 O   0  0  0  0  0  0
   33.5351    4.4392   21.9328 O   0  0  0  0  0  0
   37.9852    7.0245   23.0639 O   0  0  0  0  0  0
   36.8305    7.7137   20.7994 N   0  0  0  0  0  0
   28.5917   10.7480   23.8119 N   0  0  0  0  0  0
   37.1703    9.0634   21.0426 C   0  0  0  0  0  0
   37.0139    9.6033   22.4315 C   0  0  0  0  0  0
   35.7788    9.6501   22.9952 C   0  0  0  0  0  0
   35.4774   10.1498   24.3333 C   0  0  0  0  0  0
   34.2689   10.5621   24.7694 C   0  0  0  0  0  0
   32.9894   10.6064   24.0105 C   0  0  0  0  0  0
   31.7969    9.8728   24.7717 C   0  0  0  0  0  0
   32.0923    8.2913   25.0594 C   0  0  0  0  0  0
   32.0626    7.8203   26.2964 C   0  0  0  0  0  0
   32.2538    6.4090   26.7674 C   0  0  0  0  0  0
   33.1891    6.2889   27.9811 C   0  0  0  0  0  0
   34.6360    6.6493   27.6406 C   0  0  0  0  0  0
   35.2829    5.6969   26.6392 C   0  0  0  0  0  0
   36.7331    6.0395   26.2201 C   0  0  0  0  0  0
   37.2453    5.1772   25.0153 C   0  0  0  0  0  0
   36.4348    5.3915   23.7704 C   0  0  0  0  0  0
   35.3050    4.7604   23.4331 C   0  0  0  0  0  0
   34.5679    5.0504   22.1887 C   0  0  0  0  0  0
   35.0774    6.0747   21.2725 C   0  0  0  0  0  0
   36.2025    6.7284   21.5563 C   0  0  0  0  0  0
   36.9442    6.4190   22.8181 C   0  0  0  0  0  0
   38.2694   10.0893   23.0857 C   0  0  0  0  0  0
   33.3873   12.7571   22.8025 C   0  0  0  0  0  0
   29.6081   10.5563   24.6606 C   0  0  0  0  0  0
   32.3487    7.4235   23.8255 C   0  0  0  0  0  0
   30.8502    5.8724   27.1252 C   0  0  0  0  0  0
   35.1906    7.7038   29.7535 C   0  0  0  0  0  0
   36.8516    7.5107   25.9459 C   0  0  0  0  0  0
   35.3422    2.4819   24.5886 C   0  0  0  0  0  0
   33.6907    4.8070   29.2864 H   0  0  0  0  0  0
   37.1064    7.3894   19.8616 H   0  0  0  0  0  0
   28.6878   10.4750   22.8234 H   0  0  0  0  0  0
   27.7132   11.1685   24.1471 H   0  0  0  0  0  0
  1 12  2  0  0  0
  2 17  1  0  0  0
  2 34  1  0  0  0
  3 18  1  0  0  0
  3 35  1  0  0  0
  4 35  2  0  0  0
  5 22  1  0  0  0
  6 23  1  0  0  0
  6 38  1  0  0  0
  7 28  1  0  0  0
  7 40  1  0  0  0
  8 29  2  0  0  0
  9 32  2  0  0  0
 10 12  1  0  0  0
 10 31  1  0  0  0
 11 35  1  0  0  0
 12 13  1  0  0  0
 13 14  2  0  0  0
 13 33  1  0  0  0
 14 15  1  0  0  0
 15 16  2  0  0  0
 16 17  1  0  0  0
 17 18  1  0  0  0
 18 19  1  0  0  0
 19 20  2  0  0  0
 19 36  1  0  0  0
 20 21  1  0  0  0
 21 22  1  0  0  0
 21 37  1  0  0  0
 22 23  1  0  0  0
 23 24  1  0  0  0
 24 25  1  0  0  0
 25 26  1  0  0  0
 25 39  1  0  0  0
 26 27  1  0  0  0
 27 28  2  0  0  0
 27 32  1  0  0  0
 28 29  1  0  0  0
 29 30  1  0  0  0
 30 31  2  0  0  0
 31 32  1  0  0  0
  5 41  1  0  0  0
 10 42  1  0  0  0
 11 43  1  0  0  0
 11 44  1  0  0  0
M  END
>  <CHROM.0>
63.16362046,-60.05635630,-60.91037848,-56.63053824,6.15954215,167.96318900

>  <CHROM.1>
67.69095704,-124.70315839,-5.64898567,-178.29889470,-72.99605451,-64.23384978
34.33103250,7.71837919,24.48312574,-0.27084291,0.60717539,-0.71416722

>  <Name>
L_1YET

>  <RI>
0

>  <Rbt.Current_Directory>
/home/daniel/Dropbox/WORK/rDock_2013.1_src_DAG/bin

>  <Rbt.Executable>
rbdock ($Id: //depot/dev/client3/rdock/2013.1/src/exe/rbdock.cxx#4 $)

>  <Rbt.Library>
libRbt.so (2013.1, Build901 2013/11/27)

>  <Rbt.Parameter_File>
/home/daniel/dev/rdock-code//data/scripts/dock.prm

>  <Rbt.Receptor>
1YET_test.prm

>  <SCORE>
-45.0439

>  <SCORE.INTER>
-26.5705

>  <SCORE.INTER.CONST>
1

>  <SCORE.INTER.POLAR>
-3.39102

>  <SCORE.INTER.REPUL>
0

>  <SCORE.INTER.ROT>
5

>  <SCORE.INTER.VDW>
-25.4411

>  <SCORE.INTER.norm>
-0.664263

>  <SCORE.INTRA>
-9.14503

>  <SCORE.INTRA.DIHEDRAL>
-3.00331

>  <SCORE.INTRA.DIHEDRAL.0>
15.3889

>  <SCORE.INTRA.POLAR>
0

>  <SCORE.INTRA.POLAR.0>
0

>  <SCORE.INTRA.REPUL>
0

>  <SCORE.INTRA.REPUL.0>
0

>  <SCORE.INTRA.VDW>
-7.64337

>  <SCORE.INTRA.VDW.0>
7.09596

>  <SCORE.INTRA.norm>
-0.228626

>  <SCORE.RESTR>
0.362261

>  <SCORE.RESTR.CAVITY>
0

>  <SCORE.RESTR.PHARMA>
0.362261

>  <SCORE.RESTR.PHARMA.con_1>
0.362261

>  <SCORE.RESTR.PHARMA.con_2>
0

>  <SCORE.RESTR.norm>
0.00905653

>  <SCORE.SYSTEM>
-9.69062

>  <SCORE.SYSTEM.CONST>
0

>  <SCORE.SYSTEM.DIHEDRAL>
0.83322

>  <SCORE.SYSTEM.POLAR>
-2.29645

>  <SCORE.SYSTEM.REPUL>
0.0037567

>  <SCORE.SYSTEM.VDW>
-2.31809

>  <SCORE.SYSTEM.norm>
-0.242266

>  <SCORE.heavy>
40

>  <SCORE.norm>
-1.1261

$$$$
L_1YET
  rDOCK(R)          3D
libRbt.so/2013.1/901 2013/11/27
 44 45  0  0  0  0  0  0  0  0999 V2000
   38.2798    9.8346   19.8957 O   0  0  0  0  0  0
   33.4556   12.6962   23.4420 O   0  0  0  0  0  0
   31.3124   10.9572   23.6040 O   0  0  0  0  0  0
   29.9992   10.5385   25.4421 O   0  0  0  0  0  0
   32.9497    5.5149   27.9935 O   0  0  0  0  0  0
   35.4871    6.8428   28.4631 O   0  0  0  0  0  0
   34.4955    4.2137   23.8226 O   0  0  0  0  0  0
   33.4594    5.1169   21.4735 O   0  0  0  0  0  0
   38.1915    7.0521   22.7499 O   0  0  0  0  0  0
   37.1896    7.9398   20.4817 N   0  0  0  0  0  0
   29.1183   11.1666   23.4554 N   0  0  0  0  0  0
   37.7027    9.2256   20.7638 C   0  0  0  0  0  0
   37.5903    9.7516   22.1623 C   0  0  0  0  0  0
   36.3608    9.9527   22.7039 C   0  0  0  0  0  0
   36.1005   10.4596   24.0480 C   0  0  0  0  0  0
   34.9493   11.0219   24.4713 C   0  0  0  0  0  0
   33.7042   11.2550   23.6900 C   0  0  0  0  0  0
   32.4075   10.6730   24.4108 C   0  0  0  0  0  0
   32.4809    9.0603   24.6655 C   0  0  0  0  0  0
   32.3612    8.5711   25.8899 C   0  0  0  0  0  0
   32.3503    7.1371   26.3299 C   0  0  0  0  0  0
   33.2343    6.8655   27.5575 C   0  0  0  0  0  0
   34.7236    7.0343   27.2529 C   0  0  0  0  0  0
   35.2580    6.0250   26.2409 C   0  0  0  0  0  0
   36.7498    6.1775   25.8573 C   0  0  0  0  0  0
   37.1674    5.2801   24.6416 C   0  0  0  0  0  0
   36.4203    5.6288   23.3875 C   0  0  0  0  0  0
   35.2234    5.1635   23.0139 C   0  0  0  0  0  0
   34.5594    5.5773   21.7634 C   0  0  0  0  0  0
   35.2219    6.5429   20.8820 C   0  0  0  0  0  0
   36.4184    7.0322   21.2025 C   0  0  0  0  0  0
   37.0840    6.5983   22.4700 C   0  0  0  0  0  0
   38.8854   10.0492   22.8515 C   0  0  0  0  0  0
   33.4019   13.5448   24.6434 C   0  0  0  0  0  0
   30.1227   10.8564   24.2830 C   0  0  0  0  0  0
   32.6448    8.1926   23.4158 C   0  0  0  0  0  0
   30.8797    6.7874   26.6484 C   0  0  0  0  0  0
   35.3463    7.9452   29.4131 C   0  0  0  0  0  0
   37.0713    7.6247   25.6212 C   0  0  0  0  0  0
   34.9415    2.8861   24.1373 C   0  0  0  0  0  0
   33.4897    5.3078   28.8459 H   0  0  0  0  0  0
   37.4397    7.6015   19.5415 H   0  0  0  0  0  0
   29.3174   11.4272   22.4789 H   0  0  0  0  0  0
   28.1460   11.1449   23.7946 H   0  0  0  0  0  0
  1 12  2  0  0  0
  2 17  1  0  0  0
  2 34  1  0  0  0
  3 18  1  0  0  0
  3 35  1  0  0  0
  4 35  2  0  0  0
  5 22  1  0  0  0
  6 23  1  0  0  0
  6 38  1  0  0  0
  7 28  1  0  0  0
  7 40  1  0  0  0
  8 29  2  0  0  0
  9 32  2  0  0  0
 10 12  1  0  0  0
 10 31  1  0  0  0
 11 35  1  0  0  0
 12 13  1  0  0  0
 13 14  2  0  0  0
 13 33  1  0  0  0
 14 15  1  0  0  0
 15 16  2  0  0  0
 16 17  1  0  0  0
 17 18  1  0  0  0
 18 19  1  0  0  0
 19 20  2  0  0  0
 19 36  1  0  0  0
 20 21  1  0  0  0
 21 22  1  0  0  0
 21 37  1  0  0  0
 22 23  1  0  0  0
 23 24  1  0  0  0
 24 25  1  0  0  0
 25 26  1  0  0  0
 25 39  1  0  0  0
 26 27  1  0  0  0
 27 28  2  0  0  0
 27 32  1  0  0  0
 28 29  1  0  0  0
 29 30  1  0  0  0
 30 31  2  0  0  0
 31 32  1  0  0  0
  5 41  1  0  0  0
 10 42  1  0  0  0
 11 43  1  0  0  0
 11 44  1  0  0  0
M  END
>  <CHROM.0>
65.14044903,-58.27743676,-66.31533887,101.39063698,3.25840280,-68.36801001

>  <CHROM.1>
-55.66597532,-162.34543557,-1.16857727,-177.22717667,-71.75720680,-62.85748208
34.58519743,8.12795735,24.17554000,-0.17837831,0.65268033,-0.59109946

>  <Name>
L_1YET

>  <RI>
0

>  <Rbt.Current_Directory>
/home/daniel/Dropbox/WORK/rDock_2013.1_src_DAG/bin

>  <Rbt.Executable>
rbdock ($Id: //depot/dev/client3/rdock/2013.1/src/exe/rbdock.cxx#4 $)

>  <Rbt.Library>
libRbt.so (2013.1, Build901 2013/11/27)

>  <Rbt.Parameter_File>
/home/daniel/dev/rdock-code//data/scripts/dock.prm

>  <Rbt.Receptor>
1YET_test.prm

>  <SCORE>
-44.9897

>  <SCORE.INTER>
-25.4249

>  <SCORE.INTER.CONST>
1

>  <SCORE.INTER.POLAR>
-2.44078

>  <SCORE.INTER.REPUL>
0.00902131

>  <SCORE.INTER.ROT>
5

>  <SCORE.INTER.VDW>
-27.5713

>  <SCORE.INTER.norm>
-0.635622

>  <SCORE.INTRA>
-10.7937

>  <SCORE.INTRA.DIHEDRAL>
-9.22329

>  <SCORE.INTRA.DIHEDRAL.0>
15.3889

>  <SCORE.INTRA.POLAR>
0

>  <SCORE.INTRA.POLAR.0>
0

>  <SCORE.INTRA.REPUL>
0

>  <SCORE.INTRA.REPUL.0>
0

>  <SCORE.INTRA.VDW>
-6.18202

>  <SCORE.INTRA.VDW.0>
7.09596

>  <SCORE.INTRA.norm>
-0.269842

>  <SCORE.RESTR>
0.0346196

>  <SCORE.RESTR.CAVITY>
0

>  <SCORE.RESTR.PHARMA>
0.0346196

>  <SCORE.RESTR.PHARMA.con_1>
0.0346196

>  <SCORE.RESTR.PHARMA.con_2>
0

>  <SCORE.RESTR.norm>
0.000865489

>  <SCORE.SYSTEM>
-8.80575

>  <SCORE.SYSTEM.CONST>
0

>  <SCORE.SYSTEM.DIHEDRAL>
3.41657

>  <SCORE.SYSTEM.POLAR>
-2.86409

>  <SCORE.SYSTEM.VDW>
-0.776142

>  <SCORE.SYSTEM.norm>
-0.220144

>  <SCORE.heavy>
40

>  <SCORE.norm>
-1.12474

$$$$
L_1YET
  rDOCK(R)          3D
libRbt.so/2013.1/901 2013/11/27
 44 45  0  0  0  0  0  0  0  0999 V2000
   38.2870   10.2498   20.2873 O   0  0  0  0  0  0
   33.4700   12.9016   24.0025 O   0  0  0  0  0  0
   31.3118   11.1740   24.0355 O   0  0  0  0  0  0
   29.9792   10.3850   25.7327 O   0  0  0  0  0  0
   32.8838    5.4286   28.0465 O   0  0  0  0  0  0
   35.4298    6.6994   28.6168 O   0  0  0  0  0  0
   34.4383    4.4045   23.8022 O   0  0  0  0  0  0
   33.4206    5.4760   21.5167 O   0  0  0  0  0  0
   38.1624    7.2784   22.9427 O   0  0  0  0  0  0
   37.1785    8.3286   20.7370 N   0  0  0  0  0  0
   29.1138   11.2345   23.8230 N   0  0  0  0  0  0
   37.7008    9.5875   21.1091 C   0  0  0  0  0  0
   37.5863   10.0169   22.5400 C   0  0  0  0  0  0
   36.3559   10.1908   23.0892 C   0  0  0  0  0  0
   36.0935   10.6061   24.4638 C   0  0  0  0  0  0
   34.9450   11.1477   24.9202 C   0  0  0  0  0  0
   33.7055   11.4447   24.1517 C   0  0  0  0  0  0
   32.4007   10.8256   24.8254 C   0  0  0  0  0  0
   32.4597    9.1986   24.9687 C   0  0  0  0  0  0
   32.3302    8.6272   26.1560 C   0  0  0  0  0  0
   32.3054    7.1665   26.4961 C   0  0  0  0  0  0
   33.1814    6.8036   27.7057 C   0  0  0  0  0  0
   34.6735    6.9802   27.4196 C   0  0  0  0  0  0
   35.2043    6.0384   26.3426 C   0  0  0  0  0  0
   36.6991    6.2043   25.9766 C   0  0  0  0  0  0
   37.1149    5.3891   24.7037 C   0  0  0  0  0  0
   36.3766    5.8297   23.4735 C   0  0  0  0  0  0
   35.1777    5.4015   23.0639 C   0  0  0  0  0  0
   34.5229    5.9059   21.8422 C   0  0  0  0  0  0
   35.1975    6.9243   21.0320 C   0  0  0  0  0  0
   36.3965    7.3802   21.3904 C   0  0  0  0  0  0
   37.0526    6.8544   22.6277 C   0  0  0  0  0  0
   38.8804   10.2553   23.2533 C   0  0  0  0  0  0
   32.6663   13.2962   22.8343 C   0  0  0  0  0  0
   30.1132   10.8816   24.6394 C   0  0  0  0  0  0
   32.6223    8.4176   23.6629 C   0  0  0  0  0  0
   30.8306    6.8083   26.7837 C   0  0  0  0  0  0
   35.2954    7.7360   29.6390 C   0  0  0  0  0  0
   37.0336    7.6615   25.8420 C   0  0  0  0  0  0
   34.8700    3.0535   24.0233 C   0  0  0  0  0  0
   33.4288    5.1543   28.8763 H   0  0  0  0  0  0
   37.4301    8.0536   19.7768 H   0  0  0  0  0  0
   29.3220   11.6530   22.9051 H   0  0  0  0  0  0
   28.1362   11.0877   24.1123 H   0  0  0  0  0  0
  1 12  2  0  0  0
  2 17  1  0  0  0
  2 34  1  0  0  0
  3 18  1  0  0  0
  3 35  1  0  0  0
  4 35  2  0  0  0
  5 22  1  0  0  0
  6 23  1  0  0  0
  6 38  1  0  0  0
  7 28  1  0  0  0
  7 40  1  0  0  0
  8 29  2  0  0  0
  9 32  2  0  0  0
 10 12  1  0  0  0
 10 31  1  0  0  0
 11 35  1  0  0  0
 12 13  1  0  0  0
 13 14  2  0  0  0
 13 33  1  0  0  0
 14 15  1  0  0  0
 15 16  2  0  0  0
 16 17  1  0  0  0
 17 18  1  0  0  0
 18 19  1  0  0  0
 19 20  2  0  0  0
 19 36  1  0  0  0
 20 21  1  0  0  0
 21 22  1  0  0  0
 21 37  1  0  0  0
 22 23  1  0  0  0
 23 24  1  0  0  0
 24 25  1  0  0  0
 25 26  1  0  0  0
 25 39  1  0  0  0
 26 27  1  0  0  0
 27 28  2  0  0  0
 27 32  1  0  0  0
 28 29  1  0  0  0
 29 30  1  0  0  0
 30 31  2  0  0  0
 31 32  1  0  0  0
  5 41  1  0  0  0
 10 42  1  0  0  0
 11 43  1  0  0  0
 11 44  1  0  0  0
M  END
>  <CHROM.0>
63.09397481,-56.68110180,55.93531350,90.37910864,5.57029647,63.74966774

>  <CHROM.1>
154.64350978,-169.88611453,0.35327973,-178.07752622,-71.85448106,-63.04522257
34.53785490,8.25858798,24.35289701,-0.12519616,0.61039022,-0.59827348

>  <Name>
L_1YET

>  <RI>
0

>  <Rbt.Current_Directory>
/home/daniel/Dropbox/WORK/rDock_2013.1_src_DAG/bin

>  <Rbt.Executable>
rbdock ($Id: //depot/dev/client3/rdock/2013.1/src/exe/rbdock.cxx#4 $)

>  <Rbt.Library>
libRbt.so (2013.1, Build901 2013/11/27)

>  <Rbt.Parameter_File>
/home/daniel/dev/rdock-code//data/scripts/dock.prm

>  <Rbt.Receptor>
1YET_test.prm

>  <SCORE>
-44.9232

>  <SCORE.INTER>
-25.327

>  <SCORE.INTER.CONST>
1

>  <SCORE.INTER.POLAR>
-2.43187

>  <SCORE.INTER.REPUL>
0

>  <SCORE.INTER.ROT>
5

>  <SCORE.INTER.VDW>
-27.4587

>  <SCORE.INTER.norm>
-0.633176

>  <SCORE.INTRA>
-10.4367

>  <SCORE.INTRA.DIHEDRAL>
-7.56048

>  <SCORE.INTRA.DIHEDRAL.0>
15.3889

>  <SCORE.INTRA.POLAR>
0

>  <SCORE.INTRA.POLAR.0>
0

>  <SCORE.INTRA.REPUL>
0

>  <SCORE.INTRA.REPUL.0>
0

>  <SCORE.INTRA.VDW>
-6.65649

>  <SCORE.INTRA.VDW.0>
7.09596

>  <SCORE.INTRA.norm>
-0.260918

>  <SCORE.RESTR>
0.0701221

>  <SCORE.RESTR.CAVITY>
0

>  <SCORE.RESTR.PHARMA>
0.0701221

>  <SCORE.RESTR.PHARMA.con_1>
0.0701221

>  <SCORE.RESTR.PHARMA.con_2>
0

>  <SCORE.RESTR.norm>
0.00175305

>  <SCORE.SYSTEM>
-9.22952

>  <SCORE.SYSTEM.CONST>
0

>  <SCORE.SYSTEM.DIHEDRAL>
2.10105

>  <SCORE.SYSTEM.POLAR>
-2.29608

>  <SCORE.SYSTEM.VDW>
-2.47338

>  <SCORE.SYSTEM.norm>
-0.230738

>  <SCORE.heavy>
40

>  <SCORE.norm>
-1.12308

$$$$
L_1YET
  rDOCK(R)          3D
libRbt.so/2013.1/901 2013/11/27
 44 45  0  0  0  0  0  0  0  0999 V2000
   38.2821    9.8676   19.9220 O   0  0  0  0  0  0
   33.4634   12.7238   23.4800 O   0  0  0  0  0  0
   31.3175   10.9876   23.6362 O   0  0  0  0  0  0
   30.0035   10.5514   25.4696 O   0  0  0  0  0  0
   32.9474    5.5267   28.0054 O   0  0  0  0  0  0
   35.4870    6.8490   28.4791 O   0  0  0  0  0  0
   34.4900    4.2383   23.8293 O   0  0  0  0  0  0
   33.4547    5.1517   21.4839 O   0  0  0  0  0  0
   38.1902    7.0749   22.7660 O   0  0  0  0  0  0
   37.1891    7.9724   20.5013 N   0  0  0  0  0  0
   29.1209   11.1611   23.4779 N   0  0  0  0  0  0
   37.7043    9.2563   20.7880 C   0  0  0  0  0  0
   37.5931    9.7774   22.1884 C   0  0  0  0  0  0
   36.3641    9.9785   22.7311 C   0  0  0  0  0  0
   36.1049   10.4808   24.0771 C   0  0  0  0  0  0
   34.9547   11.0434   24.5028 C   0  0  0  0  0  0
   33.7097   11.2813   23.7227 C   0  0  0  0  0  0
   32.4123   10.6988   24.4417 C   0  0  0  0  0  0
   32.4833    9.0850   24.6904 C   0  0  0  0  0  0
   32.3631    8.5915   25.9131 C   0  0  0  0  0  0
   32.3500    7.1559   26.3478 C   0  0  0  0  0  0
   33.2340    6.8785   27.5743 C   0  0  0  0  0  0
   34.7235    7.0460   27.2699 C   0  0  0  0  0  0
   35.2560    6.0396   26.2540 C   0  0  0  0  0  0
   36.7480    6.1912   25.8705 C   0  0  0  0  0  0
   37.1638    5.2976   24.6515 C   0  0  0  0  0  0
   36.4169    5.6520   23.3988 C   0  0  0  0  0  0
   35.2192    5.1900   23.0239 C   0  0  0  0  0  0
   34.5555    5.6093   21.7751 C   0  0  0  0  0  0
   35.2193    6.5771   20.8971 C   0  0  0  0  0  0
   36.4166    7.0634   21.2191 C   0  0  0  0  0  0
   37.0819    6.6238   22.4848 C   0  0  0  0  0  0
   38.8888   10.0705   22.8783 C   0  0  0  0  0  0
   33.4217   13.5697   24.6837 C   0  0  0  0  0  0
   30.1267   10.8688   24.3104 C   0  0  0  0  0  0
   32.6455    8.2216   23.4375 C   0  0  0  0  0  0
   30.8790    6.8074   26.6654 C   0  0  0  0  0  0
   35.3359    7.9407   29.4397 C   0  0  0  0  0  0
   37.0717    7.6388   25.6396 C   0  0  0  0  0  0
   34.1479    2.9049   23.4227 C   0  0  0  0  0  0
   33.4773    5.3201   28.8642 H   0  0  0  0  0  0
   37.4383    7.6371   19.5599 H   0  0  0  0  0  0
   29.3199   11.4228   22.5018 H   0  0  0  0  0  0
   28.1476   11.1243   23.8132 H   0  0  0  0  0  0
  1 12  2  0  0  0
  2 17  1  0  0  0
  2 34  1  0  0  0
  3 18  1  0  0  0
  3 35  1  0  0  0
  4 35  2  0  0  0
  5 22  1  0  0  0
  6 23  1  0  0  0
  6 38  1  0  0  0
  7 28  1  0  0  0
  7 40  1  0  0  0
  8 29  2  0  0  0
  9 32  2  0  0  0
 10 12  1  0  0  0
 10 31  1  0  0  0
 11 35  1  0  0  0
 12 13  1  0  0  0
 13 14  2  0  0  0
 13 33  1  0  0  0
 14 15  1  0  0  0
 15 16  2  0  0  0
 16 17  1  0  0  0
 17 18  1  0  0  0
 18 19  1  0  0  0
 19 20  2  0  0  0
 19 36  1  0  0  0
 20 21  1  0  0  0
 21 22  1  0  0  0
 21 37  1  0  0  0
 22 23  1  0  0  0
 23 24  1  0  0  0
 24 25  1  0  0  0
 25 26  1  0  0  0
 25 39  1  0  0  0
 26 27  1  0  0  0
 27 28  2  0  0  0
 27 32  1  0  0  0
 28 29  1  0  0  0
 29 30  1  0  0  0
 30 31  2  0  0  0
 31 32  1  0  0  0
  5 41  1  0  0  0
 10 42  1  0  0  0
 11 43  1  0  0  0
 11 44  1  0  0  0
M  END
>  <CHROM.0>
64.08379618,-56.77338882,53.65509975,-135.11635987,7.13464965,63.97112354

>  <CHROM.1>
-55.21164911,-163.15561983,-0.05288601,-176.45044511,-71.08515506,-116.67333913
34.56468485,8.14898367,24.17696917,-0.15642020,0.65826803,-0.55726966

>  <Name>
L_1YET

>  <RI>
0

>  <Rbt.Current_Directory>
/home/daniel/Dropbox/WORK/rDock_2013.1_src_DAG/bin

>  <Rbt.Executable>
rbdock ($Id: //depot/dev/client3/rdock/2013.1/src/exe/rbdock.cxx#4 $)

>  <Rbt.Library>
libRbt.so (2013.1, Build901 2013/11/27)

>  <Rbt.Parameter_File>
/home/daniel/dev/rdock-code//data/scripts/dock.prm

>  <Rbt.Receptor>
1YET_test.prm

>  <SCORE>
-44.8488

>  <SCORE.INTER>
-25.6916

>  <SCORE.INTER.CONST>
1

>  <SCORE.INTER.POLAR>
-2.44365

>  <SCORE.INTER.REPUL>
0.000114979

>  <SCORE.INTER.ROT>
5

>  <SCORE.INTER.VDW>
-27.7838

>  <SCORE.INTER.norm>
-0.642291

>  <SCORE.INTRA>
-10.7421

>  <SCORE.INTRA.DIHEDRAL>
-9.34632

>  <SCORE.INTRA.DIHEDRAL.0>
15.3889

>  <SCORE.INTRA.POLAR>
0

>  <SCORE.INTRA.POLAR.0>
0

>  <SCORE.INTRA.REPUL>
0

>  <SCORE.INTRA.REPUL.0>
0

>  <SCORE.INTRA.VDW>
-6.06892

>  <SCORE.INTRA.VDW.0>
7.09596

>  <SCORE.INTRA.norm>
-0.268552

>  <SCORE.RESTR>
0.0329523

>  <SCORE.RESTR.CAVITY>
0

>  <SCORE.RESTR.PHARMA>
0.0329523

>  <SCORE.RESTR.PHARMA.con_1>
0.0329523

>  <SCORE.RESTR.PHARMA.con_2>
0

>  <SCORE.RESTR.norm>
0.000823807

>  <SCORE.SYSTEM>
-8.44804

>  <SCORE.SYSTEM.CONST>
0

>  <SCORE.SYSTEM.DIHEDRAL>
3.45695

>  <SCORE.SYSTEM.POLAR>
-2.29605

>  <SCORE.SYSTEM.VDW>
-2.36994

>  <SCORE.SYSTEM.norm>
-0.211201

>  <SCORE.heavy>
40

>  <SCORE.norm>
-1.12122

$$$$
L_1YET
  rDOCK(R)          3D
libRbt.so/2013.1/901 2013/11/27
 44 45  0  0  0  0  0  0  0  0999 V2000
   37.6923    9.7857   20.1384 O   0  0  0  0  0  0
   32.6047   12.0128   23.7709 O   0  0  0  0  0  0
   30.7389    9.9895   24.0326 O   0  0  0  0  0  0
   29.6929   10.8431   25.8916 O   0  0  0  0  0  0
   33.2596    4.9455   28.4791 O   0  0  0  0  0  0
   35.5916    6.6338   28.8448 O   0  0  0  0  0  0
   34.8628    3.7781   24.2903 O   0  0  0  0  0  0
   33.6444    4.4666   21.9560 O   0  0  0  0  0  0
   38.0821    7.0893   23.0493 O   0  0  0  0  0  0
   36.9020    7.7692   20.7951 N   0  0  0  0  0  0
   28.6578   10.7156   23.8842 N   0  0  0  0  0  0
   37.2324    9.1217   21.0357 C   0  0  0  0  0  0
   37.0835    9.6599   22.4260 C   0  0  0  0  0  0
   35.8530    9.6962   23.0005 C   0  0  0  0  0  0
   35.5590   10.1930   24.3413 C   0  0  0  0  0  0
   34.3509   10.5949   24.7879 C   0  0  0  0  0  0
   33.0644   10.6285   24.0402 C   0  0  0  0  0  0
   31.8849    9.8846   24.8115 C   0  0  0  0  0  0
   32.1962    8.3056   25.0961 C   0  0  0  0  0  0
   32.1812    7.8341   26.3332 C   0  0  0  0  0  0
   32.3884    6.4244   26.8020 C   0  0  0  0  0  0
   33.3352    6.3120   28.0076 C   0  0  0  0  0  0
   34.7760    6.6847   27.6547 C   0  0  0  0  0  0
   35.4223    5.7380   26.6474 C   0  0  0  0  0  0
   36.8658    6.0930   26.2159 C   0  0  0  0  0  0
   37.3749    5.2354   25.0064 C   0  0  0  0  0  0
   36.5518    5.4431   23.7687 C   0  0  0  0  0  0
   35.4245    4.8024   23.4410 C   0  0  0  0  0  0
   34.6742    5.0865   22.2031 C   0  0  0  0  0  0
   35.1670    6.1153   21.2828 C   0  0  0  0  0  0
   36.2890    6.7784   21.5570 C   0  0  0  0  0  0
   37.0442    6.4751   22.8123 C   0  0  0  0  0  0
   38.3405   10.1564   23.0695 C   0  0  0  0  0  0
   33.4154   12.7720   22.8051 C   0  0  0  0  0  0
   29.6891   10.5484   24.7199 C   0  0  0  0  0  0
   32.4492    7.4403   23.8598 C   0  0  0  0  0  0
   30.9926    5.8758   27.1719 C   0  0  0  0  0  0
   35.3115    7.7208   29.7815 C   0  0  0  0  0  0
   36.9695    7.5652   25.9411 C   0  0  0  0  0  0
   34.7253    2.3947   23.9330 C   0  0  0  0  0  0
   33.8284    4.8440   29.3318 H   0  0  0  0  0  0
   37.1725    7.4475   19.8548 H   0  0  0  0  0  0
   28.7441   10.4345   22.8970 H   0  0  0  0  0  0
   27.7775   11.1253   24.2281 H   0  0  0  0  0  0
  1 12  2  0  0  0
  2 17  1  0  0  0
  2 34  1  0  0  0
  3 18  1  0  0  0
  3 35  1  0  0  0
  4 35  2  0  0  0
  5 22  1  0  0  0
  6 23  1  0  0  0
  6 38  1  0  0  0
  7 28  1  0  0  0
  7 40  1  0  0  0
  8 29  2  0  0  0
  9 32  2  0  0  0
 10 12  1  0  0  0
 10 31  1  0  0  0
 11 35  1  0  0  0
 12 13  1  0  0  0
 13 14  2  0  0  0
 13 33  1  0  0  0
 14 15  1  0  0  0
 15 16  2  0  0  0
 16 17  1  0  0  0
 17 18  1  0  0  0
 18 19  1  0  0  0
 19 20  2  0  0  0
 19 36  1  0  0  0
 20 21  1  0  0  0
 21 22  1  0  0  0
 21 37  1  0  0  0
 22 23  1  0  0  0
 23 24  1  0  0  0
 24 25  1  0  0  0
 25 26  1  0  0  0
 25 39  1  0  0  0
 26 27  1  0  0  0
 27 28  2  0  0  0
 27 32  1  0  0  0
 28 29  1  0  0  0
 29 30  1  0  0  0
 30 31  2  0  0  0
 31 32  1  0  0  0
  5 41  1  0  0  0
 10 42  1  0  0  0
 11 43  1  0  0  0
 11 44  1  0  0  0
M  END
>  <CHROM.0>
64.00727777,-55.63817063,58.85125029,-29.08419168,179.49773861,169.49123064

>  <CHROM.1>
69.08695410,-124.75893176,-4.84377337,-175.85789457,-71.26053884,-115.72660963
34.41268939,7.74725986,24.48248788,-0.21831742,0.61594196,-0.70296211

>  <Name>
L_1YET

>  <RI>
0

>  <Rbt.Current_Directory>
/home/daniel/Dropbox/WORK/rDock_2013.1_src_DAG/bin

>  <Rbt.Executable>
rbdock ($Id: //depot/dev/client3/rdock/2013.1/src/exe/rbdock.cxx#4 $)

>  <Rbt.Library>
libRbt.so (2013.1, Build901 2013/11/27)

>  <Rbt.Parameter_File>
/home/daniel/dev/rdock-code//data/scripts/dock.prm

>  <Rbt.Receptor>
1YET_test.prm

>  <SCORE>
-44.7285

>  <SCORE.INTER>
-27.701

>  <SCORE.INTER.CONST>
1

>  <SCORE.INTER.POLAR>
-3.688

>  <SCORE.INTER.REPUL>
0

>  <SCORE.INTER.ROT>
5

>  <SCORE.INTER.VDW>
-25.5619

>  <SCORE.INTER.norm>
-0.692526

>  <SCORE.INTRA>
-9.08021

>  <SCORE.INTRA.DIHEDRAL>
-3.07492

>  <SCORE.INTRA.DIHEDRAL.0>
15.3889

>  <SCORE.INTRA.POLAR>
0

>  <SCORE.INTRA.POLAR.0>
0

>  <SCORE.INTRA.REPUL>
0

>  <SCORE.INTRA.REPUL.0>
0

>  <SCORE.INTRA.VDW>
-7.54276

>  <SCORE.INTRA.VDW.0>
7.09596

>  <SCORE.INTRA.norm>
-0.227005

>  <SCORE.RESTR>
0.307925

>  <SCORE.RESTR.CAVITY>
0

>  <SCORE.RESTR.PHARMA>
0.307925

>  <SCORE.RESTR.PHARMA.con_1>
0.307925

>  <SCORE.RESTR.PHARMA.con_2>
0

>  <SCORE.RESTR.norm>
0.00769812

>  <SCORE.SYSTEM>
-8.25515

>  <SCORE.SYSTEM.CONST>
0

>  <SCORE.SYSTEM.DIHEDRAL>
2.60178

>  <SCORE.SYSTEM.POLAR>
-2.29652

>  <SCORE.SYSTEM.VDW>
-1.74788

>  <SCORE.SYSTEM.norm>
-0.206379

>  <SCORE.heavy>
40

>  <SCORE.norm>
-1.11821

$$$$
L_1YET
  rDOCK(R)          3D
libRbt.so/2013.1/901 2013/11/27
 44 45  0  0  0  0  0  0  0  0999 V2000
   37.9361    9.9187   20.4116 O   0  0  0  0  0  0
   32.9148   12.3069   24.0339 O   0  0  0  0  0  0
   30.8829   10.4331   24.0918 O   0  0  0  0  0  0
   29.7552   10.9928   26.0137 O   0  0  0  0  0  0
   32.8210    4.9026   28.2421 O   0  0  0  0  0  0
   35.2669    6.3615   28.8003 O   0  0  0  0  0  0
   34.4781    3.8966   24.0325 O   0  0  0  0  0  0
   33.4065    4.8431   21.7166 O   0  0  0  0  0  0
   37.9985    7.0054   23.1327 O   0  0  0  0  0  0
   36.9614    7.9348   20.8973 N   0  0  0  0  0  0
   28.7319   10.9275   23.9972 N   0  0  0  0  0  0
   37.3911    9.2352   21.2442 C   0  0  0  0  0  0
   37.2350    9.6870   22.6643 C   0  0  0  0  0  0
   35.9911    9.7861   23.2012 C   0  0  0  0  0  0
   35.6889   10.2123   24.5643 C   0  0  0  0  0  0
   34.5016   10.6819   25.0007 C   0  0  0  0  0  0
   33.2507   10.8739   24.2175 C   0  0  0  0  0  0
   31.9871   10.1796   24.8965 C   0  0  0  0  0  0
   32.1588    8.5644   25.0769 C   0  0  0  0  0  0
   32.0600    8.0118   26.2760 C   0  0  0  0  0  0
   32.1349    6.5608   26.6489 C   0  0  0  0  0  0
   33.0243    6.2872   27.8723 C   0  0  0  0  0  0
   34.5026    6.5619   27.5921 C   0  0  0  0  0  0
   35.1069    5.6361   26.5402 C   0  0  0  0  0  0
   36.5893    5.8985   26.1803 C   0  0  0  0  0  0
   37.0717    5.0866   24.9291 C   0  0  0  0  0  0
   36.3144    5.4468   23.6843 C   0  0  0  0  0  0
   35.1518    4.9265   23.2766 C   0  0  0  0  0  0
   34.4733    5.3565   22.0395 C   0  0  0  0  0  0
   35.0814    6.4016   21.2110 C   0  0  0  0  0  0
   36.2425    6.9484   21.5669 C   0  0  0  0  0  0
   36.9237    6.4976   22.8201 C   0  0  0  0  0  0
   38.5034   10.0316   23.3805 C   0  0  0  0  0  0
   33.9390   13.1143   23.3517 C   0  0  0  0  0  0
   29.7795   10.8052   24.8204 C   0  0  0  0  0  0
   32.3864    7.7681   23.7903 C   0  0  0  0  0  0
   30.6865    6.1063   26.9349 C   0  0  0  0  0  0
   35.0410    7.4008   29.8034 C   0  0  0  0  0  0
   36.8219    7.3723   26.0150 C   0  0  0  0  0  0
   34.3189    2.5341   23.6097 C   0  0  0  0  0  0
   33.3742    4.6867   29.0837 H   0  0  0  0  0  0
   37.2395    7.6570   19.9452 H   0  0  0  0  0  0
   28.8451   10.7472   22.9894 H   0  0  0  0  0  0
   27.8123   11.2019   24.3713 H   0  0  0  0  0  0
  1 12  2  0  0  0
  2 17  1  0  0  0
  2 34  1  0  0  0
  3 18  1  0  0  0
  3 35  1  0  0  0
  4 35  2  0  0  0
  5 22  1  0  0  0
  6 23  1  0  0  0
  6 38  1  0  0  0
  7 28  1  0  0  0
  7 40  1  0  0  0
  8 29  2  0  0  0
  9 32  2  0  0  0
 10 12  1  0  0  0
 10 31  1  0  0  0
 11 35  1  0  0  0
 12 13  1  0  0  0
 13 14  2  0  0  0
 13 33  1  0  0  0
 14 15  1  0  0  0
 15 16  2  0  0  0
 16 17  1  0  0  0
 17 18  1  0  0  0
 18 19  1  0  0  0
 19 20  2  0  0  0
 19 36  1  0  0  0
 20 21  1  0  0  0
 21 22  1  0  0  0
 21 37  1  0  0  0
 22 23  1  0  0  0
 23 24  1  0  0  0
 24 25  1  0  0  0
 25 26  1  0  0  0
 25 39  1  0  0  0
 26 27  1  0  0  0
 27 28  2  0  0  0
 27 32  1  0  0  0
 28 29  1  0  0  0
 29 30  1  0  0  0
 30 31  2  0  0  0
 31 32  1  0  0  0
  5 41  1  0  0  0
 10 42  1  0  0  0
 11 43  1  0  0  0
 11 44  1  0  0  0
M  END
>  <CHROM.0>
65.20191523,-57.94619672,-58.59754326,61.22376876,-175.81575211,169.24586486

>  <CHROM.1>
58.72413892,-135.57923779,4.93315833,-177.85568152,-71.24264129,-111.42944295
34.34097735,7.84366699,24.50444913,-0.22130138,0.62545988,-0.56088966

>  <Name>
L_1YET

>  <RI>
0

>  <Rbt.Current_Directory>
/home/daniel/Dropbox/WORK/rDock_2013.1_src_DAG/bin

>  <Rbt.Executable>
rbdock ($Id: //depot/dev/client3/rdock/2013.1/src/exe/rbdock.cxx#4 $)

>  <Rbt.Library>
libRbt.so (2013.1, Build901 2013/11/27)

>  <Rbt.Parameter_File>
/home/daniel/dev/rdock-code//data/scripts/dock.prm

>  <Rbt.Receptor>
1YET_test.prm

>  <SCORE>
-44.6561

>  <SCORE.INTER>
-25.8368

>  <SCORE.INTER.CONST>
1

>  <SCORE.INTER.POLAR>
-3.1265

>  <SCORE.INTER.REPUL>
0

>  <SCORE.INTER.ROT>
5

>  <SCORE.INTER.VDW>
-25.6067

>  <SCORE.INTER.norm>
-0.645921

>  <SCORE.INTRA>
-9.34474

>  <SCORE.INTRA.DIHEDRAL>
-4.26458

>  <SCORE.INTRA.DIHEDRAL.0>
15.3889

>  <SCORE.INTRA.POLAR>
0

>  <SCORE.INTRA.POLAR.0>
0

>  <SCORE.INTRA.REPUL>
0

>  <SCORE.INTRA.REPUL.0>
0

>  <SCORE.INTRA.VDW>
-7.21245

>  <SCORE.INTRA.VDW.0>
7.09596

>  <SCORE.INTRA.norm>
-0.233619

>  <SCORE.RESTR>
0.109357

>  <SCORE.RESTR.CAVITY>
0

>  <SCORE.RESTR.PHARMA>
0.109357

>  <SCORE.RESTR.PHARMA.con_1>
0.109357

>  <SCORE.RESTR.PHARMA.con_2>
0

>  <SCORE.RESTR.norm>
0.00273393

>  <SCORE.SYSTEM>
-9.58385

>  <SCORE.SYSTEM.CONST>
0

>  <SCORE.SYSTEM.DIHEDRAL>
0.750852

>  <SCORE.SYSTEM.POLAR>
-2.28922

>  <SCORE.SYSTEM.VDW>
-2.17592

>  <SCORE.SYSTEM.norm>
-0.239596

>  <SCORE.heavy>
40

>  <SCORE.norm>
-1.1164

$$$$
L_1YET
  rDOCK(R)          3D
libRbt.so/2013.1/901 2013/11/27
 44 45  0  0  0  0  0  0  0  0999 V2000
   38.2929   10.1109   20.1402 O   0  0  0  0  0  0
   33.4787   12.8140   23.8220 O   0  0  0  0  0  0
   31.3306   11.0754   23.9022 O   0  0  0  0  0  0
   30.0947   11.1472   25.8377 O   0  0  0  0  0  0
   32.9545    5.4253   28.0263 O   0  0  0  0  0  0
   35.4960    6.7221   28.5570 O   0  0  0  0  0  0
   34.4944    4.3201   23.7971 O   0  0  0  0  0  0
   33.4597    5.3372   21.4944 O   0  0  0  0  0  0
   38.1980    7.1958   22.8585 O   0  0  0  0  0  0
   37.1975    8.1935   20.6359 N   0  0  0  0  0  0
   29.1428   11.3627   23.7969 N   0  0  0  0  0  0
   37.7144    9.4629   20.9787 C   0  0  0  0  0  0
   37.6043    9.9219   22.4007 C   0  0  0  0  0  0
   36.3757   10.1006   22.9521 C   0  0  0  0  0  0
   36.1174   10.5435   24.3189 C   0  0  0  0  0  0
   34.9681   11.0883   24.7693 C   0  0  0  0  0  0
   33.7233   11.3619   24.0008 C   0  0  0  0  0  0
   32.4253   10.7499   24.6939 C   0  0  0  0  0  0
   32.4942    9.1267   24.8713 C   0  0  0  0  0  0
   32.3737    8.5800   26.0711 C   0  0  0  0  0  0
   32.3589    7.1267   26.4422 C   0  0  0  0  0  0
   33.2427    6.7944   27.6550 C   0  0  0  0  0  0
   34.7324    6.9733   27.3578 C   0  0  0  0  0  0
   35.2633    6.0118   26.2985 C   0  0  0  0  0  0
   36.7554    6.1782   25.9216 C   0  0  0  0  0  0
   37.1697    5.3386   24.6643 C   0  0  0  0  0  0
   36.4230    5.7488   23.4287 C   0  0  0  0  0  0
   35.2246    5.3053   23.0341 C   0  0  0  0  0  0
   34.5611    5.7800   21.8052 C   0  0  0  0  0  0
   35.2260    6.7847   20.9704 C   0  0  0  0  0  0
   36.4241    7.2548   21.3131 C   0  0  0  0  0  0
   37.0891    6.7591   22.5581 C   0  0  0  0  0  0
   38.9005   10.1827   23.1024 C   0  0  0  0  0  0
   32.6529   13.1779   22.6594 C   0  0  0  0  0  0
   30.1733   11.1917   24.6329 C   0  0  0  0  0  0
   32.6550    8.3191   23.5816 C   0  0  0  0  0  0
   30.8875    6.7664   26.7447 C   0  0  0  0  0  0
   35.4119    7.8091   29.5311 C   0  0  0  0  0  0
   37.0810    7.6341   25.7545 C   0  0  0  0  0  0
   34.8826    2.9474   23.9570 C   0  0  0  0  0  0
   33.5216    5.1646   28.8457 H   0  0  0  0  0  0
   37.4461    7.8997   19.6805 H   0  0  0  0  0  0
   29.3036   11.3882   22.7798 H   0  0  0  0  0  0
   28.1888   11.4688   24.1704 H   0  0  0  0  0  0
  1 12  2  0  0  0
  2 17  1  0  0  0
  2 34  1  0  0  0
  3 18  1  0  0  0
  3 35  1  0  0  0
  4 35  2  0  0  0
  5 22  1  0  0  0
  6 23  1  0  0  0
  6 38  1  0  0  0
  7 28  1  0  0  0
  7 40  1  0  0  0
  8 29  2  0  0  0
  9 32  2  0  0  0
 10 12  1  0  0  0
 10 31  1  0  0  0
 11 35  1  0  0  0
 12 13  1  0  0  0
 13 14  2  0  0  0
 13 33  1  0  0  0
 14 15  1  0  0  0
 15 16  2  0  0  0
 16 17  1  0  0  0
 17 18  1  0  0  0
 18 19  1  0  0  0
 19 20  2  0  0  0
 19 36  1  0  0  0
 20 21  1  0  0  0
 21 22  1  0  0  0
 21 37  1  0  0  0
 22 23  1  0  0  0
 23 24  1  0  0  0
 24 25  1  0  0  0
 25 26  1  0  0  0
 25 39  1  0  0  0
 26 27  1  0  0  0
 27 28  2  0  0  0
 27 32  1  0  0  0
 28 29  1  0  0  0
 29 30  1  0  0  0
 30 31  2  0  0  0
 31 32  1  0  0  0
  5 41  1  0  0  0
 10 42  1  0  0  0
 11 43  1  0  0  0
 11 44  1  0  0  0
M  END
>  <CHROM.0>
176.34923591,-58.13857957,174.54812676,-145.74901673,7.33548393,169.27016210

>  <CHROM.1>
155.39255892,-150.84574189,6.55479890,-179.39698140,-74.62378960,-68.22079606
34.57780565,8.22457661,24.27397549,-0.23164480,0.63669609,-0.61507753

>  <Name>
L_1YET

>  <RI>
0

>  <Rbt.Current_Directory>
/home/daniel/Dropbox/WORK/rDock_2013.1_src_DAG/bin

>  <Rbt.Executable>
rbdock ($Id: //depot/dev/client3/rdock/2013.1/src/exe/rbdock.cxx#4 $)

>  <Rbt.Library>
libRbt.so (2013.1, Build901 2013/11/27)

>  <Rbt.Parameter_File>
/home/daniel/dev/rdock-code//data/scripts/dock.prm

>  <Rbt.Receptor>
1YET_test.prm

>  <SCORE>
-44.6144

>  <SCORE.INTER>
-29.0591

>  <SCORE.INTER.CONST>
1

>  <SCORE.INTER.POLAR>
-3.37246

>  <SCORE.INTER.REPUL>
0

>  <SCORE.INTER.ROT>
5

>  <SCORE.INTER.VDW>
-27.9928

>  <SCORE.INTER.norm>
-0.726479

>  <SCORE.INTRA>
-9.13544

>  <SCORE.INTRA.DIHEDRAL>
-3.83463

>  <SCORE.INTRA.DIHEDRAL.0>
15.3889

>  <SCORE.INTRA.POLAR>
0

>  <SCORE.INTRA.POLAR.0>
0

>  <SCORE.INTRA.REPUL>
0

>  <SCORE.INTRA.REPUL.0>
0

>  <SCORE.INTRA.VDW>
-7.21812

>  <SCORE.INTRA.VDW.0>
7.09596

>  <SCORE.INTRA.norm>
-0.228386

>  <SCORE.RESTR>
0.13841

>  <SCORE.RESTR.CAVITY>
0

>  <SCORE.RESTR.PHARMA>
0.13841

>  <SCORE.RESTR.PHARMA.con_1>
0.13841

>  <SCORE.RESTR.PHARMA.con_2>
0

>  <SCORE.RESTR.norm>
0.00346026

>  <SCORE.SYSTEM>
-6.55827

>  <SCORE.SYSTEM.CONST>
0

>  <SCORE.SYSTEM.DIHEDRAL>
2.99212

>  <SCORE.SYSTEM.POLAR>
-1.9037

>  <SCORE.SYSTEM.VDW>
-1.58177

>  <SCORE.SYSTEM.norm>
-0.163957

>  <SCORE.heavy>
40

>  <SCORE.norm>
-1.11536

$$$$
L_1YET
  rDOCK(R)          3D
libRbt.so/2013.1/901 2013/11/27
 44 45  0  0  0  0  0  0  0  0999 V2000
   38.3116   10.1846   20.2222 O   0  0  0  0  0  0
   33.4312   12.8420   23.8496 O   0  0  0  0  0  0
   31.2949   11.0877   23.8973 O   0  0  0  0  0  0
   29.9584   10.4770   25.6635 O   0  0  0  0  0  0
   32.9068    5.4374   28.0257 O   0  0  0  0  0  0
   35.4318    6.7509   28.5927 O   0  0  0  0  0  0
   34.5087    4.3557   23.8135 O   0  0  0  0  0  0
   33.4962    5.3721   21.5006 O   0  0  0  0  0  0
   38.2030    7.2609   22.9307 O   0  0  0  0  0  0
   37.2239    8.2579   20.6983 N   0  0  0  0  0  0
   29.0974   11.1969   23.6994 N   0  0  0  0  0  0
   37.7272    9.5299   21.0513 C   0  0  0  0  0  0
   37.5955    9.9840   22.4731 C   0  0  0  0  0  0
   36.3587   10.1521   23.0092 C   0  0  0  0  0  0
   36.0797   10.5891   24.3739 C   0  0  0  0  0  0
   34.9208   11.1243   24.8111 C   0  0  0  0  0  0
   33.6839   11.3912   24.0274 C   0  0  0  0  0  0
   32.3817   10.7678   24.7021 C   0  0  0  0  0  0
   32.4601    9.1446   24.8757 C   0  0  0  0  0  0
   32.3282    8.5935   26.0723 C   0  0  0  0  0  0
   32.3192    7.1390   26.4390 C   0  0  0  0  0  0
   33.1898    6.8096   27.6621 C   0  0  0  0  0  0
   34.6818    7.0000   27.3846 C   0  0  0  0  0  0
   35.2332    6.0456   26.3293 C   0  0  0  0  0  0
   36.7288    6.2239   25.9721 C   0  0  0  0  0  0
   37.1652    5.3910   24.7179 C   0  0  0  0  0  0
   36.4315    5.7994   23.4739 C   0  0  0  0  0  0
   35.2414    5.3484   23.0628 C   0  0  0  0  0  0
   34.5903    5.8220   21.8268 C   0  0  0  0  0  0
   35.2586    6.8339   21.0035 C   0  0  0  0  0  0
   36.4487    7.3116   21.3629 C   0  0  0  0  0  0
   37.1013    6.8171   22.6148 C   0  0  0  0  0  0
   38.8807   10.2520   23.1922 C   0  0  0  0  0  0
   32.6373   13.2053   22.6647 C   0  0  0  0  0  0
   30.0950   10.8805   24.5329 C   0  0  0  0  0  0
   32.6432    8.3420   23.5859 C   0  0  0  0  0  0
   30.8467    6.7673   26.7215 C   0  0  0  0  0  0
   35.2645    7.7971   29.6001 C   0  0  0  0  0  0
   37.0459    7.6826   25.8134 C   0  0  0  0  0  0
   34.2291    3.0218   23.3630 C   0  0  0  0  0  0
   32.0026    5.3913   28.5169 H   0  0  0  0  0  0
   37.4868    7.9687   19.7453 H   0  0  0  0  0  0
   29.3078   11.5344   22.7492 H   0  0  0  0  0  0
   28.1192   11.1031   24.0079 H   0  0  0  0  0  0
  1 12  2  0  0  0
  2 17  1  0  0  0
  2 34  1  0  0  0
  3 18  1  0  0  0
  3 35  1  0  0  0
  4 35  2  0  0  0
  5 22  1  0  0  0
  6 23  1  0  0  0
  6 38  1  0  0  0
  7 28  1  0  0  0
  7 40  1  0  0  0
  8 29  2  0  0  0
  9 32  2  0  0  0
 10 12  1  0  0  0
 10 31  1  0  0  0
 11 35  1  0  0  0
 12 13  1  0  0  0
 13 14  2  0  0  0
 13 33  1  0  0  0
 14 15  1  0  0  0
 15 16  2  0  0  0
 16 17  1  0  0  0
 17 18  1  0  0  0
 18 19  1  0  0  0
 19 20  2  0  0  0
 19 36  1  0  0  0
 20 21  1  0  0  0
 21 22  1  0  0  0
 21 37  1  0  0  0
 22 23  1  0  0  0
 23 24  1  0  0  0
 24 25  1  0  0  0
 25 26  1  0  0  0
 25 39  1  0  0  0
 26 27  1  0  0  0
 27 28  2  0  0  0
 27 32  1  0  0  0
 28 29  1  0  0  0
 29 30  1  0  0  0
 30 31  2  0  0  0
 31 32  1  0  0  0
  5 41  1  0  0  0
 10 42  1  0  0  0
 11 43  1  0  0  0
 11 44  1  0  0  0
M  END
>  <CHROM.0>
63.77167955,-58.51290231,55.69084116,-151.97178718,179.49803014,-68.48575790

>  <CHROM.1>
154.37716650,-165.53947035,0.50583987,-76.80291001,-71.23272627,-113.89363398
34.53267103,8.22952391,24.27811034,-0.10100597,0.60643758,-0.59648628

>  <Name>
L_1YET

>  <RI>
0

>  <Rbt.Current_Directory>
/home/daniel/Dropbox/WORK/rDock_2013.1_src_DAG/bin

>  <Rbt.Executable>
rbdock ($Id: //depot/dev/client3/rdock/2013.1/src/exe/rbdock.cxx#4 $)

>  <Rbt.Library>
libRbt.so (2013.1, Build901 2013/11/27)

>  <Rbt.Parameter_File>
/home/daniel/dev/rdock-code//data/scripts/dock.prm

>  <Rbt.Receptor>
1YET_test.prm

>  <SCORE>
-44.433

>  <SCORE.INTER>
-25.9269

>  <SCORE.INTER.CONST>
1

>  <SCORE.INTER.POLAR>
-2.41663

>  <SCORE.INTER.REPUL>
0

>  <SCORE.INTER.ROT>
5

>  <SCORE.INTER.VDW>
-28.1103

>  <SCORE.INTER.norm>
-0.648173

>  <SCORE.INTRA>
-9.059

>  <SCORE.INTRA.DIHEDRAL>
-5.61484

>  <SCORE.INTRA.DIHEDRAL.0>
15.3889

>  <SCORE.INTRA.POLAR>
0

>  <SCORE.INTRA.POLAR.0>
0

>  <SCORE.INTRA.REPUL>
0

>  <SCORE.INTRA.REPUL.0>
0

>  <SCORE.INTRA.VDW>
-6.25158

>  <SCORE.INTRA.VDW.0>
7.09596

>  <SCORE.INTRA.norm>
-0.226475

>  <SCORE.RESTR>
0.058915

>  <SCORE.RESTR.CAVITY>
0

>  <SCORE.RESTR.PHARMA>
0.058915

>  <SCORE.RESTR.PHARMA.con_1>
0.058915

>  <SCORE.RESTR.PHARMA.con_2>
0

>  <SCORE.RESTR.norm>
0.00147287

>  <SCORE.SYSTEM>
-9.50601

>  <SCORE.SYSTEM.CONST>
0

>  <SCORE.SYSTEM.DIHEDRAL>
2.09935

>  <SCORE.SYSTEM.POLAR>
-2.87209

>  <SCORE.SYSTEM.VDW>
-0.790569

>  <SCORE.SYSTEM.norm>
-0.23765

>  <SCORE.heavy>
40

>  <SCORE.norm>
-1.11082

$$$$
L_1YET
  rDOCK(R)          3D
libRbt.so/2013.1/901 2013/11/27
 44 45  0  0  0  0  0  0  0  0999 V2000
   38.0861   10.0952   20.5356 O   0  0  0  0  0  0
   33.2051   12.5272   24.3171 O   0  0  0  0  0  0
   31.0971   10.7385   24.3166 O   0  0  0  0  0  0
   29.7984   10.2392   26.1449 O   0  0  0  0  0  0
   32.8422    4.9544   28.1982 O   0  0  0  0  0  0
   35.3525    6.2845   28.7912 O   0  0  0  0  0  0
   34.4143    4.0675   23.9296 O   0  0  0  0  0  0
   33.3607    5.1591   21.6700 O   0  0  0  0  0  0
   38.0529    7.0644   23.1257 O   0  0  0  0  0  0
   37.0339    8.1339   20.9453 N   0  0  0  0  0  0
   28.9051   10.9900   24.2069 N   0  0  0  0  0  0
   37.5211    9.3987   21.3438 C   0  0  0  0  0  0
   37.3981    9.7935   22.7840 C   0  0  0  0  0  0
   36.1647    9.9203   23.3392 C   0  0  0  0  0  0
   35.8941   10.2979   24.7231 C   0  0  0  0  0  0
   34.7318   10.7966   25.1934 C   0  0  0  0  0  0
   33.4824   11.0747   24.4340 C   0  0  0  0  0  0
   32.1975   10.4042   25.0966 C   0  0  0  0  0  0
   32.3031    8.7768   25.2042 C   0  0  0  0  0  0
   32.1930    8.1763   26.3790 C   0  0  0  0  0  0
   32.2107    6.7084   26.6872 C   0  0  0  0  0  0
   33.0997    6.3444   27.8870 C   0  0  0  0  0  0
   34.5854    6.5696   27.6019 C   0  0  0  0  0  0
   35.1400    5.6670   26.5035 C   0  0  0  0  0  0
   36.6286    5.8833   26.1383 C   0  0  0  0  0  0
   37.0641    5.1082   24.8472 C   0  0  0  0  0  0
   36.3104    5.5542   23.6283 C   0  0  0  0  0  0
   35.1231    5.1010   23.2118 C   0  0  0  0  0  0
   34.4512    5.6131   22.0026 C   0  0  0  0  0  0
   35.0944    6.6676   21.2136 C   0  0  0  0  0  0
   36.2808    7.1496   21.5795 C   0  0  0  0  0  0
   36.9548    6.6159   22.8037 C   0  0  0  0  0  0
   38.6868   10.0531   23.4998 C   0  0  0  0  0  0
   34.2650   13.3242   23.6784 C   0  0  0  0  0  0
   29.9137   10.6187   25.0037 C   0  0  0  0  0  0
   32.4845    8.0293   23.8814 C   0  0  0  0  0  0
   30.7473    6.3022   26.9698 C   0  0  0  0  0  0
   35.2194    7.3125   29.8222 C   0  0  0  0  0  0
   36.9212    7.3521   26.0349 C   0  0  0  0  0  0
   34.1237    2.7586   23.4172 C   0  0  0  0  0  0
   33.4168    4.6704   29.0045 H   0  0  0  0  0  0
   37.2908    7.8872   19.9789 H   0  0  0  0  0  0
   29.0973   11.3010   23.2439 H   0  0  0  0  0  0
   27.9365   10.9646   24.5564 H   0  0  0  0  0  0
  1 12  2  0  0  0
  2 17  1  0  0  0
  2 34  1  0  0  0
  3 18  1  0  0  0
  3 35  1  0  0  0
  4 35  2  0  0  0
  5 22  1  0  0  0
  6 23  1  0  0  0
  6 38  1  0  0  0
  7 28  1  0  0  0
  7 40  1  0  0  0
  8 29  2  0  0  0
  9 32  2  0  0  0
 10 12  1  0  0  0
 10 31  1  0  0  0
 11 35  1  0  0  0
 12 13  1  0  0  0
 13 14  2  0  0  0
 13 33  1  0  0  0
 14 15  1  0  0  0
 15 16  2  0  0  0
 16 17  1  0  0  0
 17 18  1  0  0  0
 18 19  1  0  0  0
 19 20  2  0  0  0
 19 36  1  0  0  0
 20 21  1  0  0  0
 21 22  1  0  0  0
 21 37  1  0  0  0
 22 23  1  0  0  0
 23 24  1  0  0  0
 24 25  1  0  0  0
 25 26  1  0  0  0
 25 39  1  0  0  0
 26 27  1  0  0  0
 27 28  2  0  0  0
 27 32  1  0  0  0
 28 29  1  0  0  0
 29 30  1  0  0  0
 30 31  2  0  0  0
 31 32  1  0  0  0
  5 41  1  0  0  0
 10 42  1  0  0  0
 11 43  1  0  0  0
 11 44  1  0  0  0
M  END
>  <CHROM.0>
63.87365591,-58.40916538,57.19394553,-147.58341714,179.50345362,65.55801109

>  <CHROM.1>
57.78278829,-159.20184663,-1.69177522,-179.65161048,-73.39925535,-115.40781770
34.43681407,7.94438188,24.56751197,-0.05540909,0.62586437,-0.49693966

>  <Name>
L_1YET

>  <RI>
0

>  <Rbt.Current_Directory>
/home/daniel/Dropbox/WORK/rDock_2013.1_src_DAG/bin

>  <Rbt.Executable>
rbdock ($Id: //depot/dev/client3/rdock/2013.1/src/exe/rbdock.cxx#4 $)

>  <Rbt.Library>
libRbt.so (2013.1, Build901 2013/11/27)

>  <Rbt.Parameter_File>
/home/daniel/dev/rdock-code//data/scripts/dock.prm

>  <Rbt.Receptor>
1YET_test.prm

>  <SCORE>
-43.8143

>  <SCORE.INTER>
-23.3683

>  <SCORE.INTER.CONST>
1

>  <SCORE.INTER.POLAR>
-2.41012

>  <SCORE.INTER.REPUL>
0

>  <SCORE.INTER.ROT>
5

>  <SCORE.INTER.VDW>
-25.5739

>  <SCORE.INTER.norm>
-0.584208

>  <SCORE.INTRA>
-11.4244

>  <SCORE.INTRA.DIHEDRAL>
-8.51801

>  <SCORE.INTRA.DIHEDRAL.0>
15.3889

>  <SCORE.INTRA.POLAR>
0

>  <SCORE.INTRA.POLAR.0>
0

>  <SCORE.INTRA.REPUL>
0

>  <SCORE.INTRA.REPUL.0>
0

>  <SCORE.INTRA.VDW>
-7.16539

>  <SCORE.INTRA.VDW.0>
7.09596

>  <SCORE.INTRA.norm>
-0.28561

>  <SCORE.RESTR>
0.02755

>  <SCORE.RESTR.CAVITY>
0

>  <SCORE.RESTR.PHARMA>
0.02755

>  <SCORE.RESTR.PHARMA.con_1>
0.02755

>  <SCORE.RESTR.PHARMA.con_2>
0

>  <SCORE.RESTR.norm>
0.000688751

>  <SCORE.SYSTEM>
-9.04916

>  <SCORE.SYSTEM.CONST>
0

>  <SCORE.SYSTEM.DIHEDRAL>
2.29352

>  <SCORE.SYSTEM.POLAR>
-2.29733

>  <SCORE.SYSTEM.VDW>
-2.38502

>  <SCORE.SYSTEM.norm>
-0.226229

>  <SCORE.heavy>
40

>  <SCORE.norm>
-1.09536

$$$$
L_1YET
  rDOCK(R)          3D
libRbt.so/2013.1/901 2013/11/27
 44 45  0  0  0  0  0  0  0  0999 V2000
   38.0543   10.1115   20.5320 O   0  0  0  0  0  0
   33.2228   12.5114   24.3966 O   0  0  0  0  0  0
   31.1149   10.7225   24.4085 O   0  0  0  0  0  0
   29.8355   10.1485   26.2284 O   0  0  0  0  0  0
   32.9099    4.9063   28.2187 O   0  0  0  0  0  0
   35.4277    6.2317   28.7901 O   0  0  0  0  0  0
   34.4266    4.0553   23.9228 O   0  0  0  0  0  0
   33.3438    5.1657   21.6862 O   0  0  0  0  0  0
   38.0546    7.0591   23.0969 O   0  0  0  0  0  0
   37.0074    8.1467   20.9389 N   0  0  0  0  0  0
   28.9203   10.9612   24.3260 N   0  0  0  0  0  0
   37.4998    9.4082   21.3416 C   0  0  0  0  0  0
   37.3954    9.7909   22.7865 C   0  0  0  0  0  0
   36.1694    9.9129   23.3587 C   0  0  0  0  0  0
   35.9167   10.2790   24.7491 C   0  0  0  0  0  0
   34.7607   10.7736   25.2385 C   0  0  0  0  0  0
   33.5015   11.0580   24.4977 C   0  0  0  0  0  0
   32.2253   10.3818   25.1713 C   0  0  0  0  0  0
   32.3323    8.7536   25.2639 C   0  0  0  0  0  0
   32.2373    8.1433   26.4350 C   0  0  0  0  0  0
   32.2589    6.6729   26.7307 C   0  0  0  0  0  0
   33.1635    6.2989   27.9157 C   0  0  0  0  0  0
   34.6454    6.5266   27.6133 C   0  0  0  0  0  0
   35.1857    5.6333   26.5004 C   0  0  0  0  0  0
   36.6694    5.8528   26.1177 C   0  0  0  0  0  0
   37.0881    5.0885   24.8146 C   0  0  0  0  0  0
   36.3187    5.5446   23.6093 C   0  0  0  0  0  0
   35.1261    5.0948   23.2045 C   0  0  0  0  0  0
   34.4385    5.6169   22.0084 C   0  0  0  0  0  0
   35.0716    6.6781   21.2200 C   0  0  0  0  0  0
   36.2626    7.1571   21.5745 C   0  0  0  0  0  0
   36.9524    6.6132   22.7854 C   0  0  0  0  0  0
   38.6933   10.0447   23.4877 C   0  0  0  0  0  0
   34.2381   13.3020   23.6822 C   0  0  0  0  0  0
   29.9383   10.5694   25.1006 C   0  0  0  0  0  0
   32.4965    8.0172   23.9326 C   0  0  0  0  0  0
   30.7994    6.2642   27.0288 C   0  0  0  0  0  0
   35.3245    7.2613   29.8230 C   0  0  0  0  0  0
   36.9606    7.3224   26.0228 C   0  0  0  0  0  0
   34.8788    2.6999   24.0596 C   0  0  0  0  0  0
   33.4771    4.6222   29.0302 H   0  0  0  0  0  0
   37.2518    7.9081   19.9672 H   0  0  0  0  0  0
   29.1019   11.3079   23.3732 H   0  0  0  0  0  0
   27.9549   10.9161   24.6824 H   0  0  0  0  0  0
  1 12  2  0  0  0
  2 17  1  0  0  0
  2 34  1  0  0  0
  3 18  1  0  0  0
  3 35  1  0  0  0
  4 35  2  0  0  0
  5 22  1  0  0  0
  6 23  1  0  0  0
  6 38  1  0  0  0
  7 28  1  0  0  0
  7 40  1  0  0  0
  8 29  2  0  0  0
  9 32  2  0  0  0
 10 12  1  0  0  0
 10 31  1  0  0  0
 11 35  1  0  0  0
 12 13  1  0  0  0
 13 14  2  0  0  0
 13 33  1  0  0  0
 14 15  1  0  0  0
 15 16  2  0  0  0
 16 17  1  0  0  0
 17 18  1  0  0  0
 18 19  1  0  0  0
 19 20  2  0  0  0
 19 36  1  0  0  0
 20 21  1  0  0  0
 21 22  1  0  0  0
 21 37  1  0  0  0
 22 23  1  0  0  0
 23 24  1  0  0  0
 24 25  1  0  0  0
 25 26  1  0  0  0
 25 39  1  0  0  0
 26 27  1  0  0  0
 27 28  2  0  0  0
 27 32  1  0  0  0
 28 29  1  0  0  0
 29 30  1  0  0  0
 30 31  2  0  0  0
 31 32  1  0  0  0
  5 41  1  0  0  0
 10 42  1  0  0  0
 11 43  1  0  0  0
 11 44  1  0  0  0
M  END
>  <CHROM.0>
60.80241398,-57.97787692,-178.89388439,-27.51975735,-173.27609412,63.15847061

>  <CHROM.1>
61.16998255,-160.51486512,-2.30055942,-178.22086904,-74.29800855,-65.16704758
34.47682368,7.92267184,24.60740404,-0.07216047,0.62941880,-0.51991021

>  <Name>
L_1YET

>  <RI>
0

>  <Rbt.Current_Directory>
/home/daniel/Dropbox/WORK/rDock_2013.1_src_DAG/bin

>  <Rbt.Executable>
rbdock ($Id: //depot/dev/client3/rdock/2013.1/src/exe/rbdock.cxx#4 $)

>  <Rbt.Library>
libRbt.so (2013.1, Build901 2013/11/27)

>  <Rbt.Parameter_File>
/home/daniel/dev/rdock-code//data/scripts/dock.prm

>  <Rbt.Receptor>
1YET_test.prm

>  <SCORE>
-43.7853

>  <SCORE.INTER>
-22.6638

>  <SCORE.INTER.CONST>
1

>  <SCORE.INTER.POLAR>
-2.31388

>  <SCORE.INTER.REPUL>
0

>  <SCORE.INTER.ROT>
5

>  <SCORE.INTER.VDW>
-25.1966

>  <SCORE.INTER.norm>
-0.566596

>  <SCORE.INTRA>
-11.7364

>  <SCORE.INTRA.DIHEDRAL>
-8.56828

>  <SCORE.INTRA.DIHEDRAL.0>
15.3889

>  <SCORE.INTRA.POLAR>
0

>  <SCORE.INTRA.POLAR.0>
0

>  <SCORE.INTRA.REPUL>
0

>  <SCORE.INTRA.REPUL.0>
0

>  <SCORE.INTRA.VDW>
-7.45224

>  <SCORE.INTRA.VDW.0>
7.09596

>  <SCORE.INTRA.norm>
-0.293409

>  <SCORE.RESTR>
0.0054453

>  <SCORE.RESTR.CAVITY>
0

>  <SCORE.RESTR.PHARMA>
0.0054453

>  <SCORE.RESTR.PHARMA.con_1>
0.0054453

>  <SCORE.RESTR.PHARMA.con_2>
0

>  <SCORE.RESTR.norm>
0.000136132

>  <SCORE.SYSTEM>
-9.39051

>  <SCORE.SYSTEM.CONST>
0

>  <SCORE.SYSTEM.DIHEDRAL>
2.18349

>  <SCORE.SYSTEM.POLAR>
-2.40249

>  <SCORE.SYSTEM.VDW>
-2.31378

>  <SCORE.SYSTEM.norm>
-0.234763

>  <SCORE.heavy>
40

>  <SCORE.norm>
-1.09463

$$$$
L_1YET
  rDOCK(R)          3D
libRbt.so/2013.1/901 2013/11/27
 44 45  0  0  0  0  0  0  0  0999 V2000
   37.6455    9.6762   20.1364 O   0  0  0  0  0  0
   32.5673   11.9915   23.7264 O   0  0  0  0  0  0
   30.6634   10.0017   23.9704 O   0  0  0  0  0  0
   29.5865   10.7780   25.8456 O   0  0  0  0  0  0
   33.0550    4.9107   28.4347 O   0  0  0  0  0  0
   35.4135    6.5569   28.8218 O   0  0  0  0  0  0
   34.6734    3.7175   24.2590 O   0  0  0  0  0  0
   33.4877    4.4290   21.9148 O   0  0  0  0  0  0
   37.9619    6.9714   23.0485 O   0  0  0  0  0  0
   36.8136    7.6737   20.7846 N   0  0  0  0  0  0
   28.5943   10.7594   23.8127 N   0  0  0  0  0  0
   37.1661    9.0199   21.0291 C   0  0  0  0  0  0
   37.0148    9.5598   22.4185 C   0  0  0  0  0  0
   35.7802    9.6177   22.9824 C   0  0  0  0  0  0
   35.4835   10.1188   24.3210 C   0  0  0  0  0  0
   34.2789   10.5420   24.7574 C   0  0  0  0  0  0
   32.9998   10.5990   23.9986 C   0  0  0  0  0  0
   31.8005    9.8759   24.7591 C   0  0  0  0  0  0
   32.0811    8.2914   25.0452 C   0  0  0  0  0  0
   32.0470    7.8195   26.2818 C   0  0  0  0  0  0
   32.2249    6.4060   26.7513 C   0  0  0  0  0  0
   33.1591    6.2759   27.9649 C   0  0  0  0  0  0
   34.6093    6.6230   27.6248 C   0  0  0  0  0  0
   35.2473    5.6656   26.6224 C   0  0  0  0  0  0
   36.7006    5.9951   26.2036 C   0  0  0  0  0  0
   37.2047    5.1292   24.9980 C   0  0  0  0  0  0
   36.3962    5.3523   23.7533 C   0  0  0  0  0  0
   35.2605    4.7321   23.4154 C   0  0  0  0  0  0
   34.5263    5.0303   22.1713 C   0  0  0  0  0  0
   35.0453    6.0508   21.2560 C   0  0  0  0  0  0
   36.1765    6.6935   21.5405 C   0  0  0  0  0  0
   36.9152    6.3760   22.8020 C   0  0  0  0  0  0
   38.2748   10.0334   23.0733 C   0  0  0  0  0  0
   33.3757   12.7233   22.7379 C   0  0  0  0  0  0
   29.6051   10.5399   24.6612 C   0  0  0  0  0  0
   32.3293    7.4224   23.8104 C   0  0  0  0  0  0
   30.8163    5.8822   27.1086 C   0  0  0  0  0  0
   35.2154    7.6994   29.7123 C   0  0  0  0  0  0
   36.8329    7.4653   25.9308 C   0  0  0  0  0  0
   34.4884    2.3430   23.8888 C   0  0  0  0  0  0
   32.1742    4.7924   28.9553 H   0  0  0  0  0  0
   37.0865    7.3478   19.8465 H   0  0  0  0  0  0
   28.6991   10.5248   22.8152 H   0  0  0  0  0  0
   27.7113   11.1628   24.1569 H   0  0  0  0  0  0
  1 12  2  0  0  0
  2 17  1  0  0  0
  2 34  1  0  0  0
  3 18  1  0  0  0
  3 35  1  0  0  0
  4 35  2  0  0  0
  5 22  1  0  0  0
  6 23  1  0  0  0
  6 38  1  0  0  0
  7 28  1  0  0  0
  7 40  1  0  0  0
  8 29  2  0  0  0
  9 32  2  0  0  0
 10 12  1  0  0  0
 10 31  1  0  0  0
 11 35  1  0  0  0
 12 13  1  0  0  0
 13 14  2  0  0  0
 13 33  1  0  0  0
 14 15  1  0  0  0
 15 16  2  0  0  0
 16 17  1  0  0  0
 17 18  1  0  0  0
 18 19  1  0  0  0
 19 20  2  0  0  0
 19 36  1  0  0  0
 20 21  1  0  0  0
 21 22  1  0  0  0
 21 37  1  0  0  0
 22 23  1  0  0  0
 23 24  1  0  0  0
 24 25  1  0  0  0
 25 26  1  0  0  0
 25 39  1  0  0  0
 26 27  1  0  0  0
 27 28  2  0  0  0
 27 32  1  0  0  0
 28 29  1  0  0  0
 29 30  1  0  0  0
 30 31  2  0  0  0
 31 32  1  0  0  0
  5 41  1  0  0  0
 10 42  1  0  0  0
 11 43  1  0  0  0
 11 44  1  0  0  0
M  END
>  <CHROM.0>
61.88952132,-56.22293456,62.02779744,-176.65182014,12.53982620,163.60011908

>  <CHROM.1>
70.84830542,-126.68988376,-6.30919249,-76.62698133,-75.44073559,-117.12124637
34.28928813,7.69144577,24.44863719,-0.22107448,0.61669723,-0.68568658

>  <Name>
L_1YET

>  <RI>
0

>  <Rbt.Current_Directory>
/home/daniel/Dropbox/WORK/rDock_2013.1_src_DAG/bin

>  <Rbt.Executable>
rbdock ($Id: //depot/dev/client3/rdock/2013.1/src/exe/rbdock.cxx#4 $)

>  <Rbt.Library>
libRbt.so (2013.1, Build901 2013/11/27)

>  <Rbt.Parameter_File>
/home/daniel/dev/rdock-code//data/scripts/dock.prm

>  <Rbt.Receptor>
1YET_test.prm

>  <SCORE>
-43.4785

>  <SCORE.INTER>
-26.6372

>  <SCORE.INTER.CONST>
1

>  <SCORE.INTER.POLAR>
-3.30977

>  <SCORE.INTER.REPUL>
0

>  <SCORE.INTER.ROT>
5

>  <SCORE.INTER.VDW>
-25.784

>  <SCORE.INTER.norm>
-0.665931

>  <SCORE.INTRA>
-7.8416

>  <SCORE.INTRA.DIHEDRAL>
-1.30853

>  <SCORE.INTRA.DIHEDRAL.0>
15.3889

>  <SCORE.INTRA.POLAR>
0

>  <SCORE.INTRA.POLAR.0>
0

>  <SCORE.INTRA.REPUL>
0

>  <SCORE.INTRA.REPUL.0>
0

>  <SCORE.INTRA.VDW>
-7.18734

>  <SCORE.INTRA.VDW.0>
7.09596

>  <SCORE.INTRA.norm>
-0.19604

>  <SCORE.RESTR>
0.341482

>  <SCORE.RESTR.CAVITY>
0

>  <SCORE.RESTR.PHARMA>
0.341482

>  <SCORE.RESTR.PHARMA.con_1>
0.341482

>  <SCORE.RESTR.PHARMA.con_2>
0

>  <SCORE.RESTR.norm>
0.00853706

>  <SCORE.SYSTEM>
-9.34115

>  <SCORE.SYSTEM.CONST>
0

>  <SCORE.SYSTEM.DIHEDRAL>
1.60503

>  <SCORE.SYSTEM.POLAR>
-2.28921

>  <SCORE.SYSTEM.VDW>
-2.36034

>  <SCORE.SYSTEM.norm>
-0.233529

>  <SCORE.heavy>
40

>  <SCORE.norm>
-1.08696

$$$$
L_1YET
  rDOCK(R)          3D
libRbt.so/2013.1/901 2013/11/27
 44 45  0  0  0  0  0  0  0  0999 V2000
   38.3421   10.3100   20.2931 O   0  0  0  0  0  0
   33.4345   12.8973   23.9344 O   0  0  0  0  0  0
   31.3004   11.1397   23.9377 O   0  0  0  0  0  0
   29.9549   10.5711   25.7110 O   0  0  0  0  0  0
   32.8935    5.4204   27.9774 O   0  0  0  0  0  0
   35.4129    6.7271   28.5836 O   0  0  0  0  0  0
   34.5243    4.4144   23.7575 O   0  0  0  0  0  0
   33.5254    5.4696   21.4561 O   0  0  0  0  0  0
   38.2201    7.3394   22.9495 O   0  0  0  0  0  0
   37.2541    8.3738   20.7285 N   0  0  0  0  0  0
   29.1038   11.2190   23.7177 N   0  0  0  0  0  0
   37.7532    9.6402   21.1069 C   0  0  0  0  0  0
   37.6117   10.0692   22.5355 C   0  0  0  0  0  0
   36.3711   10.2263   23.0664 C   0  0  0  0  0  0
   36.0828   10.6391   24.4366 C   0  0  0  0  0  0
   34.9203   11.1651   24.8755 C   0  0  0  0  0  0
   33.6881   11.4440   24.0886 C   0  0  0  0  0  0
   32.3824   10.8072   24.7438 C   0  0  0  0  0  0
   32.4620    9.1813   24.8896 C   0  0  0  0  0  0
   32.3231    8.6093   26.0755 C   0  0  0  0  0  0
   32.3138    7.1487   26.4168 C   0  0  0  0  0  0
   33.1769    6.7991   27.6396 C   0  0  0  0  0  0
   34.6704    6.9963   27.3751 C   0  0  0  0  0  0
   35.2300    6.0611   26.3071 C   0  0  0  0  0  0
   36.7276    6.2475   25.9628 C   0  0  0  0  0  0
   37.1734    5.4372   24.6970 C   0  0  0  0  0  0
   36.4471    5.8663   23.4556 C   0  0  0  0  0  0
   35.2605    5.4210   23.0290 C   0  0  0  0  0  0
   34.6167    5.9152   21.7972 C   0  0  0  0  0  0
   35.2888    6.9422   20.9960 C   0  0  0  0  0  0
   36.4759    7.4151   21.3714 C   0  0  0  0  0  0
   37.1211    6.8996   22.6188 C   0  0  0  0  0  0
   38.8918   10.3263   23.2674 C   0  0  0  0  0  0
   32.6397   13.2793   22.7560 C   0  0  0  0  0  0
   30.0972   10.9399   24.5693 C   0  0  0  0  0  0
   32.6546    8.4016   23.5872 C   0  0  0  0  0  0
   30.8400    6.7701   26.6832 C   0  0  0  0  0  0
   35.2726    7.7770   29.5913 C   0  0  0  0  0  0
   37.0437    7.7092   25.8315 C   0  0  0  0  0  0
   34.4807    3.0197   23.4210 C   0  0  0  0  0  0
   33.3980    5.1668   28.8389 H   0  0  0  0  0  0
   37.5236    8.1016   19.7724 H   0  0  0  0  0  0
   29.3189   11.5284   22.7591 H   0  0  0  0  0  0
   28.1238   11.1245   24.0208 H   0  0  0  0  0  0
  1 12  2  0  0  0
  2 17  1  0  0  0
  2 34  1  0  0  0
  3 18  1  0  0  0
  3 35  1  0  0  0
  4 35  2  0  0  0
  5 22  1  0  0  0
  6 23  1  0  0  0
  6 38  1  0  0  0
  7 28  1  0  0  0
  7 40  1  0  0  0
  8 29  2  0  0  0
  9 32  2  0  0  0
 10 12  1  0  0  0
 10 31  1  0  0  0
 11 35  1  0  0  0
 12 13  1  0  0  0
 13 14  2  0  0  0
 13 33  1  0  0  0
 14 15  1  0  0  0
 15 16  2  0  0  0
 16 17  1  0  0  0
 17 18  1  0  0  0
 18 19  1  0  0  0
 19 20  2  0  0  0
 19 36  1  0  0  0
 20 21  1  0  0  0
 21 22  1  0  0  0
 21 37  1  0  0  0
 22 23  1  0  0  0
 23 24  1  0  0  0
 24 25  1  0  0  0
 25 26  1  0  0  0
 25 39  1  0  0  0
 26 27  1  0  0  0
 27 28  2  0  0  0
 27 32  1  0  0  0
 28 29  1  0  0  0
 29 30  1  0  0  0
 30 31  2  0  0  0
 31 32  1  0  0  0
  5 41  1  0  0  0
 10 42  1  0  0  0
 11 43  1  0  0  0
 11 44  1  0  0  0
M  END
>  <CHROM.0>
-51.61693159,-58.24976365,173.45225369,-33.54573176,-174.88421540,-68.51449427

>  <CHROM.1>
154.79523880,-164.57023472,2.86613670,-175.61601446,-73.12649085,-100.28784194
34.54921170,8.27951153,24.29438421,-0.13369072,0.60232792,-0.58282942

>  <Name>
L_1YET

>  <RI>
0

>  <Rbt.Current_Directory>
/home/daniel/Dropbox/WORK/rDock_2013.1_src_DAG/bin

>  <Rbt.Executable>
rbdock ($Id: //depot/dev/client3/rdock/2013.1/src/exe/rbdock.cxx#4 $)

>  <Rbt.Library>
libRbt.so (2013.1, Build901 2013/11/27)

>  <Rbt.Parameter_File>
/home/daniel/dev/rdock-code//data/scripts/dock.prm

>  <Rbt.Receptor>
1YET_test.prm

>  <SCORE>
-43.0734

>  <SCORE.INTER>
-25.6109

>  <SCORE.INTER.CONST>
1

>  <SCORE.INTER.POLAR>
-2.4065

>  <SCORE.INTER.REPUL>
0

>  <SCORE.INTER.ROT>
5

>  <SCORE.INTER.VDW>
-27.8288

>  <SCORE.INTER.norm>
-0.640272

>  <SCORE.INTRA>
-10.1256

>  <SCORE.INTRA.DIHEDRAL>
-5.86373

>  <SCORE.INTRA.DIHEDRAL.0>
15.3889

>  <SCORE.INTRA.POLAR>
0

>  <SCORE.INTRA.POLAR.0>
0

>  <SCORE.INTRA.REPUL>
0

>  <SCORE.INTRA.REPUL.0>
0

>  <SCORE.INTRA.VDW>
-7.19377

>  <SCORE.INTRA.VDW.0>
7.09596

>  <SCORE.INTRA.norm>
-0.253141

>  <SCORE.RESTR>
0.0602103

>  <SCORE.RESTR.CAVITY>
0

>  <SCORE.RESTR.PHARMA>
0.0602103

>  <SCORE.RESTR.PHARMA.con_1>
0.0602103

>  <SCORE.RESTR.PHARMA.con_2>
0

>  <SCORE.RESTR.norm>
0.00150526

>  <SCORE.SYSTEM>
-7.39708

>  <SCORE.SYSTEM.CONST>
0

>  <SCORE.SYSTEM.DIHEDRAL>
2.32711

>  <SCORE.SYSTEM.POLAR>
-2.47777

>  <SCORE.SYSTEM.REPUL>
0.0245304

>  <SCORE.SYSTEM.VDW>
-0.258885

>  <SCORE.SYSTEM.norm>
-0.184927

>  <SCORE.heavy>
40

>  <SCORE.norm>
-1.07683

$$$$
L_1YET
  rDOCK(R)          3D
libRbt.so/2013.1/901 2013/11/27
 44 45  0  0  0  0  0  0  0  0999 V2000
   37.5984    9.7185   20.1164 O   0  0  0  0  0  0
   32.5316   11.9901   23.7503 O   0  0  0  0  0  0
   30.6379    9.9906   23.9937 O   0  0  0  0  0  0
   29.5780   10.7801   25.8730 O   0  0  0  0  0  0
   33.0785    4.8839   28.4134 O   0  0  0  0  0  0
   35.4320    6.5381   28.7963 O   0  0  0  0  0  0
   34.6771    3.7225   24.2212 O   0  0  0  0  0  0
   33.4744    4.4426   21.8883 O   0  0  0  0  0  0
   37.9440    6.9980   23.0105 O   0  0  0  0  0  0
   36.7792    7.7086   20.7577 N   0  0  0  0  0  0
   28.5634   10.7365   23.8516 N   0  0  0  0  0  0
   37.1272    9.0548   21.0081 C   0  0  0  0  0  0
   36.9819    9.5859   22.4016 C   0  0  0  0  0  0
   35.7504    9.6350   22.9731 C   0  0  0  0  0  0
   35.4595   10.1269   24.3164 C   0  0  0  0  0  0
   34.2557   10.5422   24.7625 C   0  0  0  0  0  0
   32.9718   10.5980   24.0116 C   0  0  0  0  0  0
   31.7803    9.8650   24.7749 C   0  0  0  0  0  0
   32.0695    8.2802   25.0500 C   0  0  0  0  0  0
   32.0449    7.8008   26.2839 C   0  0  0  0  0  0
   32.2318    6.3854   26.7439 C   0  0  0  0  0  0
   33.1737    6.2523   27.9512 C   0  0  0  0  0  0
   34.6204    6.6078   27.6045 C   0  0  0  0  0  0
   35.2565    5.6591   26.5927 C   0  0  0  0  0  0
   36.7058    5.9975   26.1672 C   0  0  0  0  0  0
   37.2066    5.1410   24.9535 C   0  0  0  0  0  0
   36.3897    5.3679   23.7150 C   0  0  0  0  0  0
   35.2548    4.7447   23.3802 C   0  0  0  0  0  0
   34.5118    5.0469   22.1422 C   0  0  0  0  0  0
   35.0209    6.0751   21.2300 C   0  0  0  0  0  0
   36.1509    6.7212   21.5116 C   0  0  0  0  0  0
   36.8985    6.3994   22.7667 C   0  0  0  0  0  0
   38.2437   10.0612   23.0516 C   0  0  0  0  0  0
   33.4108   12.7771   22.8706 C   0  0  0  0  0  0
   29.5847   10.5303   24.6910 C   0  0  0  0  0  0
   32.3142    7.4196   23.8086 C   0  0  0  0  0  0
   30.8277    5.8532   27.1065 C   0  0  0  0  0  0
   35.1891    7.6421   29.7236 C   0  0  0  0  0  0
   36.8301    7.4699   25.9024 C   0  0  0  0  0  0
   34.8014    2.3090   24.0046 C   0  0  0  0  0  0
   33.7097    4.7473   29.2158 H   0  0  0  0  0  0
   37.0479    7.3894   19.8160 H   0  0  0  0  0  0
   28.6584   10.4926   22.8553 H   0  0  0  0  0  0
   27.6823   11.1390   24.2016 H   0  0  0  0  0  0
  1 12  2  0  0  0
  2 17  1  0  0  0
  2 34  1  0  0  0
  3 18  1  0  0  0
  3 35  1  0  0  0
  4 35  2  0  0  0
  5 22  1  0  0  0
  6 23  1  0  0  0
  6 38  1  0  0  0
  7 28  1  0  0  0
  7 40  1  0  0  0
  8 29  2  0  0  0
  9 32  2  0  0  0
 10 12  1  0  0  0
 10 31  1  0  0  0
 11 35  1  0  0  0
 12 13  1  0  0  0
 13 14  2  0  0  0
 13 33  1  0  0  0
 14 15  1  0  0  0
 15 16  2  0  0  0
 16 17  1  0  0  0
 17 18  1  0  0  0
 18 19  1  0  0  0
 19 20  2  0  0  0
 19 36  1  0  0  0
 20 21  1  0  0  0
 21 22  1  0  0  0
 21 37  1  0  0  0
 22 23  1  0  0  0
 23 24  1  0  0  0
 24 25  1  0  0  0
 25 26  1  0  0  0
 25 39  1  0  0  0
 26 27  1  0  0  0
 27 28  2  0  0  0
 27 32  1  0  0  0
 28 29  1  0  0  0
 29 30  1  0  0  0
 30 31  2  0  0  0
 31 32  1  0  0  0
  5 41  1  0  0  0
 10 42  1  0  0  0
 11 43  1  0  0  0
 11 44  1  0  0  0
M  END
>  <CHROM.0>
-50.71104576,-58.04161824,177.68090367,177.87100630,178.39214076,167.09622987

>  <CHROM.1>
64.68549269,-126.18014482,-5.67760015,179.03843589,-72.77312009,-100.11742875
34.28884412,7.69371462,24.44492435,-0.24016542,0.62114205,-0.68830305

>  <Name>
L_1YET

>  <RI>
0

>  <Rbt.Current_Directory>
/home/daniel/Dropbox/WORK/rDock_2013.1_src_DAG/bin

>  <Rbt.Executable>
rbdock ($Id: //depot/dev/client3/rdock/2013.1/src/exe/rbdock.cxx#4 $)

>  <Rbt.Library>
libRbt.so (2013.1, Build901 2013/11/27)

>  <Rbt.Parameter_File>
/home/daniel/dev/rdock-code//data/scripts/dock.prm

>  <Rbt.Receptor>
1YET_test.prm

>  <SCORE>
-42.5199

>  <SCORE.INTER>
-26.4394

>  <SCORE.INTER.CONST>
1

>  <SCORE.INTER.POLAR>
-3.28835

>  <SCORE.INTER.REPUL>
0

>  <SCORE.INTER.ROT>
5

>  <SCORE.INTER.VDW>
-25.659

>  <SCORE.INTER.norm>
-0.660984

>  <SCORE.INTRA>
-8.98272

>  <SCORE.INTRA.DIHEDRAL>
-2.53217

>  <SCORE.INTRA.DIHEDRAL.0>
15.3889

>  <SCORE.INTRA.POLAR>
0

>  <SCORE.INTRA.POLAR.0>
0

>  <SCORE.INTRA.REPUL>
0

>  <SCORE.INTRA.REPUL.0>
0

>  <SCORE.INTRA.VDW>
-7.71664

>  <SCORE.INTRA.VDW.0>
7.09596

>  <SCORE.INTRA.norm>
-0.224568

>  <SCORE.RESTR>
0.324563

>  <SCORE.RESTR.CAVITY>
0

>  <SCORE.RESTR.PHARMA>
0.324563

>  <SCORE.RESTR.PHARMA.con_1>
0.324563

>  <SCORE.RESTR.PHARMA.con_2>
0

>  <SCORE.RESTR.norm>
0.00811407

>  <SCORE.SYSTEM>
-7.42241

>  <SCORE.SYSTEM.CONST>
0

>  <SCORE.SYSTEM.DIHEDRAL>
1.26233

>  <SCORE.SYSTEM.POLAR>
-1.9037

>  <SCORE.SYSTEM.REPUL>
0.00976991

>  <SCORE.SYSTEM.VDW>
-1.62986

>  <SCORE.SYSTEM.norm>
-0.18556

>  <SCORE.heavy>
40

>  <SCORE.norm>
-1.063

$$$$
L_1YET
  rDOCK(R)          3D
libRbt.so/2013.1/901 2013/11/27
 44 45  0  0  0  0  0  0  0  0999 V2000
   37.5619    8.5662   19.2694 O   0  0  0  0  0  0
   32.9017   12.0635   22.4459 O   0  0  0  0  0  0
   30.9739   10.3263   23.3994 O   0  0  0  0  0  0
   29.9355   10.9157   25.3622 O   0  0  0  0  0  0
   33.6240    6.5801   28.9230 O   0  0  0  0  0  0
   36.0529    8.1419   28.6338 O   0  0  0  0  0  0
   34.8175    4.1754   25.1451 O   0  0  0  0  0  0
   33.4414    4.2594   22.7985 O   0  0  0  0  0  0
   38.0697    6.7784   22.7967 O   0  0  0  0  0  0
   36.7380    6.8742   20.5265 N   0  0  0  0  0  0
   28.8291   10.8554   23.3900 N   0  0  0  0  0  0
   37.1486    8.2142   20.3478 C   0  0  0  0  0  0
   37.1409    9.1308   21.5329 C   0  0  0  0  0  0
   35.9655    9.4102   22.1541 C   0  0  0  0  0  0
   35.8072   10.2830   23.3135 C   0  0  0  0  0  0
   34.6601   10.8749   23.7065 C   0  0  0  0  0  0
   33.3187   10.7833   23.0682 C   0  0  0  0  0  0
   32.1749   10.3679   24.0972 C   0  0  0  0  0  0
   32.4366    8.9157   24.7998 C   0  0  0  0  0  0
   32.5033    8.8136   26.1182 C   0  0  0  0  0  0
   32.6844    7.5823   26.9555 C   0  0  0  0  0  0
   33.7222    7.7502   28.0766 C   0  0  0  0  0  0
   35.1441    7.9105   27.5363 C   0  0  0  0  0  0
   35.6603    6.6772   26.8007 C   0  0  0  0  0  0
   37.0775    6.7983   26.1900 C   0  0  0  0  0  0
   37.4443    5.6025   25.2449 C   0  0  0  0  0  0
   36.5312    5.5084   24.0575 C   0  0  0  0  0  0
   35.3525    4.8789   24.0029 C   0  0  0  0  0  0
   34.5154    4.8529   22.7886 C   0  0  0  0  0  0
   34.9762    5.5454   21.5817 C   0  0  0  0  0  0
   36.1461    6.1817   21.5792 C   0  0  0  0  0  0
   36.9887    6.1938   22.8152 C   0  0  0  0  0  0
   38.4685    9.7025   21.9220 C   0  0  0  0  0  0
   32.8417   13.2191   23.3555 C   0  0  0  0  0  0
   29.9076   10.7208   24.1702 C   0  0  0  0  0  0
   32.5459    7.7223   23.8484 C   0  0  0  0  0  0
   31.3006    7.2554   27.5593 C   0  0  0  0  0  0
   35.8111    9.4076   29.3244 C   0  0  0  0  0  0
   37.2249    8.1230   25.4995 C   0  0  0  0  0  0
   35.5292    3.1983   25.9193 C   0  0  0  0  0  0
   33.7536    5.7318   28.3533 H   0  0  0  0  0  0
   36.9142    6.2833   19.7015 H   0  0  0  0  0  0
   28.8978   10.6674   22.3796 H   0  0  0  0  0  0
   27.9302   11.1471   23.7997 H   0  0  0  0  0  0
  1 12  2  0  0  0
  2 17  1  0  0  0
  2 34  1  0  0  0
  3 18  1  0  0  0
  3 35  1  0  0  0
  4 35  2  0  0  0
  5 22  1  0  0  0
  6 23  1  0  0  0
  6 38  1  0  0  0
  7 28  1  0  0  0
  7 40  1  0  0  0
  8 29  2  0  0  0
  9 32  2  0  0  0
 10 12  1  0  0  0
 10 31  1  0  0  0
 11 35  1  0  0  0
 12 13  1  0  0  0
 13 14  2  0  0  0
 13 33  1  0  0  0
 14 15  1  0  0  0
 15 16  2  0  0  0
 16 17  1  0  0  0
 17 18  1  0  0  0
 18 19  1  0  0  0
 19 20  2  0  0  0
 19 36  1  0  0  0
 20 21  1  0  0  0
 21 22  1  0  0  0
 21 37  1  0  0  0
 22 23  1  0  0  0
 23 24  1  0  0  0
 24 25  1  0  0  0
 25 26  1  0  0  0
 25 39  1  0  0  0
 26 27  1  0  0  0
 27 28  2  0  0  0
 27 32  1  0  0  0
 28 29  1  0  0  0
 29 30  1  0  0  0
 30 31  2  0  0  0
 31 32  1  0  0  0
  5 41  1  0  0  0
 10 42  1  0  0  0
 11 43  1  0  0  0
 11 44  1  0  0  0
M  END
>  <CHROM.0>
62.97584748,-58.57352413,-172.75602111,-15.01052419,-166.67314835,-68.97231445

>  <CHROM.1>
-58.20884577,-145.84006354,-9.46621017,55.84546403,-65.36319791,-50.95862527
34.55592274,8.04833749,24.32010485,-0.07456681,0.69706193,-1.02094923

>  <Name>
L_1YET

>  <RI>
0

>  <Rbt.Current_Directory>
/home/daniel/Dropbox/WORK/rDock_2013.1_src_DAG/bin

>  <Rbt.Executable>
rbdock ($Id: //depot/dev/client3/rdock/2013.1/src/exe/rbdock.cxx#4 $)

>  <Rbt.Library>
libRbt.so (2013.1, Build901 2013/11/27)

>  <Rbt.Parameter_File>
/home/daniel/dev/rdock-code//data/scripts/dock.prm

>  <Rbt.Receptor>
1YET_test.prm

>  <SCORE>
-42.4993

>  <SCORE.INTER>
-25.3108

>  <SCORE.INTER.CONST>
1

>  <SCORE.INTER.POLAR>
-2.96865

>  <SCORE.INTER.REPUL>
0.0804463

>  <SCORE.INTER.ROT>
5

>  <SCORE.INTER.VDW>
-26.0196

>  <SCORE.INTER.norm>
-0.63277

>  <SCORE.INTRA>
-8.70505

>  <SCORE.INTRA.DIHEDRAL>
-7.1375

>  <SCORE.INTRA.DIHEDRAL.0>
15.3889

>  <SCORE.INTRA.POLAR>
0

>  <SCORE.INTRA.POLAR.0>
0

>  <SCORE.INTRA.REPUL>
0

>  <SCORE.INTRA.REPUL.0>
0

>  <SCORE.INTRA.VDW>
-5.1363

>  <SCORE.INTRA.VDW.0>
7.09596

>  <SCORE.INTRA.norm>
-0.217626

>  <SCORE.RESTR>
0.389567

>  <SCORE.RESTR.CAVITY>
0

>  <SCORE.RESTR.PHARMA>
0.389567

>  <SCORE.RESTR.PHARMA.con_1>
0.15931

>  <SCORE.RESTR.PHARMA.con_2>
0.230257

>  <SCORE.RESTR.norm>
0.00973918

>  <SCORE.SYSTEM>
-8.87303

>  <SCORE.SYSTEM.CONST>
0

>  <SCORE.SYSTEM.DIHEDRAL>
3.90681

>  <SCORE.SYSTEM.POLAR>
-2.98828

>  <SCORE.SYSTEM.VDW>
-0.666275

>  <SCORE.SYSTEM.norm>
-0.221826

>  <SCORE.heavy>
40

>  <SCORE.norm>
-1.06248

$$$$
L_1YET
  rDOCK(R)          3D
libRbt.so/2013.1/901 2013/11/27
 44 45  0  0  0  0  0  0  0  0999 V2000
   38.2935    9.9149   19.8335 O   0  0  0  0  0  0
   33.4083   12.8193   23.2596 O   0  0  0  0  0  0
   31.3395   11.0124   23.5744 O   0  0  0  0  0  0
   30.0718   10.7144   25.4672 O   0  0  0  0  0  0
   33.2572    5.9500   28.2927 O   0  0  0  0  0  0
   35.7453    7.4056   28.6289 O   0  0  0  0  0  0
   34.7951    4.4298   24.1936 O   0  0  0  0  0  0
   33.6903    5.1297   21.8068 O   0  0  0  0  0  0
   38.3579    7.3318   22.8699 O   0  0  0  0  0  0
   37.2890    8.0230   20.5642 N   0  0  0  0  0  0
   29.1380   11.1476   23.4528 N   0  0  0  0  0  0
   37.7537    9.3442   20.7503 C   0  0  0  0  0  0
   37.6400    9.9593   22.1118 C   0  0  0  0  0  0
   36.4112   10.1483   22.6593 C   0  0  0  0  0  0
   36.1496   10.7348   23.9703 C   0  0  0  0  0  0
   34.9828   11.2790   24.3741 C   0  0  0  0  0  0
   33.7183   11.4092   23.5999 C   0  0  0  0  0  0
   32.4565   10.8271   24.3801 C   0  0  0  0  0  0
   32.5986    9.2396   24.7416 C   0  0  0  0  0  0
   32.5160    8.8304   25.9981 C   0  0  0  0  0  0
   32.5692    7.4304   26.5338 C   0  0  0  0  0  0
   33.4808    7.2780   27.7620 C   0  0  0  0  0  0
   34.9576    7.4841   27.4216 C   0  0  0  0  0  0
   35.5179    6.4301   26.4711 C   0  0  0  0  0  0
   36.9968    6.6147   26.0530 C   0  0  0  0  0  0
   37.4330    5.6537   24.8938 C   0  0  0  0  0  0
   36.6548    5.8866   23.6317 C   0  0  0  0  0  0
   35.4725    5.3503   23.3106 C   0  0  0  0  0  0
   34.7747    5.6516   22.0464 C   0  0  0  0  0  0
   35.3852    6.5803   21.0908 C   0  0  0  0  0  0
   36.5654    7.1370   21.3575 C   0  0  0  0  0  0
   37.2658    6.8169   22.6399 C   0  0  0  0  0  0
   38.9316   10.3538   22.7575 C   0  0  0  0  0  0
   33.2832   13.7339   24.4059 C   0  0  0  0  0  0
   30.1654   10.9364   24.2833 C   0  0  0  0  0  0
   32.7797    8.2960   23.5507 C   0  0  0  0  0  0
   31.1187    7.0457   26.8999 C   0  0  0  0  0  0
   35.5599    8.5552   29.5130 C   0  0  0  0  0  0
   37.2563    8.0540   25.7145 C   0  0  0  0  0  0
   35.3365    3.1848   24.6597 C   0  0  0  0  0  0
   33.5914    5.2486   27.6165 H   0  0  0  0  0  0
   37.5392    7.6316   19.6449 H   0  0  0  0  0  0
   29.3121   11.3300   22.4541 H   0  0  0  0  0  0
   28.1728   11.1276   23.8121 H   0  0  0  0  0  0
  1 12  2  0  0  0
  2 17  1  0  0  0
  2 34  1  0  0  0
  3 18  1  0  0  0
  3 35  1  0  0  0
  4 35  2  0  0  0
  5 22  1  0  0  0
  6 23  1  0  0  0
  6 38  1  0  0  0
  7 28  1  0  0  0
  7 40  1  0  0  0
  8 29  2  0  0  0
  9 32  2  0  0  0
 10 12  1  0  0  0
 10 31  1  0  0  0
 11 35  1  0  0  0
 12 13  1  0  0  0
 13 14  2  0  0  0
 13 33  1  0  0  0
 14 15  1  0  0  0
 15 16  2  0  0  0
 16 17  1  0  0  0
 17 18  1  0  0  0
 18 19  1  0  0  0
 19 20  2  0  0  0
 19 36  1  0  0  0
 20 21  1  0  0  0
 21 22  1  0  0  0
 21 37  1  0  0  0
 22 23  1  0  0  0
 23 24  1  0  0  0
 24 25  1  0  0  0
 25 26  1  0  0  0
 25 39  1  0  0  0
 26 27  1  0  0  0
 27 28  2  0  0  0
 27 32  1  0  0  0
 28 29  1  0  0  0
 29 30  1  0  0  0
 30 31  2  0  0  0
 31 32  1  0  0  0
  5 41  1  0  0  0
 10 42  1  0  0  0
 11 43  1  0  0  0
 11 44  1  0  0  0
M  END
>  <CHROM.0>
62.91336491,-59.21823582,-52.53214602,-159.67577182,-2.83239361,-68.61749404

>  <CHROM.1>
-58.05505264,-161.19421518,-1.12742856,66.30656175,-70.98807909,-58.51798975
34.73052768,8.36151977,24.28019329,-0.13688455,0.64042040,-0.69049008

>  <Name>
L_1YET

>  <RI>
0

>  <Rbt.Current_Directory>
/home/daniel/Dropbox/WORK/rDock_2013.1_src_DAG/bin

>  <Rbt.Executable>
rbdock ($Id: //depot/dev/client3/rdock/2013.1/src/exe/rbdock.cxx#4 $)

>  <Rbt.Library>
libRbt.so (2013.1, Build901 2013/11/27)

>  <Rbt.Parameter_File>
/home/daniel/dev/rdock-code//data/scripts/dock.prm

>  <Rbt.Receptor>
1YET_test.prm

>  <SCORE>
-42.4769

>  <SCORE.INTER>
-22.212

>  <SCORE.INTER.CONST>
1

>  <SCORE.INTER.POLAR>
-1.56583

>  <SCORE.INTER.REPUL>
0.0235168

>  <SCORE.INTER.ROT>
5

>  <SCORE.INTER.VDW>
-27.4058

>  <SCORE.INTER.norm>
-0.555301

>  <SCORE.INTRA>
-10.2872

>  <SCORE.INTRA.DIHEDRAL>
-9.35628

>  <SCORE.INTRA.DIHEDRAL.0>
15.3889

>  <SCORE.INTRA.POLAR>
0

>  <SCORE.INTRA.POLAR.0>
0

>  <SCORE.INTRA.REPUL>
0

>  <SCORE.INTRA.REPUL.0>
0

>  <SCORE.INTRA.VDW>
-5.60907

>  <SCORE.INTRA.VDW.0>
7.09596

>  <SCORE.INTRA.norm>
-0.25718

>  <SCORE.RESTR>
0.0247266

>  <SCORE.RESTR.CAVITY>
0

>  <SCORE.RESTR.PHARMA>
0.0247266

>  <SCORE.RESTR.PHARMA.con_1>
0.0247266

>  <SCORE.RESTR.PHARMA.con_2>
0

>  <SCORE.RESTR.norm>
0.000618164

>  <SCORE.SYSTEM>
-10.0024

>  <SCORE.SYSTEM.CONST>
0

>  <SCORE.SYSTEM.DIHEDRAL>
1.488

>  <SCORE.SYSTEM.POLAR>
-2.86887

>  <SCORE.SYSTEM.VDW>
-0.992251

>  <SCORE.SYSTEM.norm>
-0.25006

>  <SCORE.heavy>
40

>  <SCORE.norm>
-1.06192

$$$$
L_1YET
  rDOCK(R)          3D
libRbt.so/2013.1/901 2013/11/27
 44 45  0  0  0  0  0  0  0  0999 V2000
   38.2897   10.1795   20.2715 O   0  0  0  0  0  0
   33.4504   12.8345   23.9553 O   0  0  0  0  0  0
   31.3008   11.0964   23.9959 O   0  0  0  0  0  0
   29.9702   10.5103   25.7748 O   0  0  0  0  0  0
   32.8916    5.3888   28.0532 O   0  0  0  0  0  0
   35.4298    6.6765   28.6201 O   0  0  0  0  0  0
   34.4616    4.3411   23.8204 O   0  0  0  0  0  0
   33.4442    5.3906   21.5245 O   0  0  0  0  0  0
   38.1735    7.2272   22.9485 O   0  0  0  0  0  0
   37.1897    8.2561   20.7327 N   0  0  0  0  0  0
   29.1025   11.1897   23.7993 N   0  0  0  0  0  0
   37.7048    9.5203   21.0967 C   0  0  0  0  0  0
   37.5846    9.9597   22.5241 C   0  0  0  0  0  0
   36.3521   10.1315   23.0690 C   0  0  0  0  0  0
   36.0842   10.5556   24.4399 C   0  0  0  0  0  0
   34.9319   11.0949   24.8895 C   0  0  0  0  0  0
   33.6928   11.3800   24.1158 C   0  0  0  0  0  0
   32.3895   10.7593   24.7910 C   0  0  0  0  0  0
   32.4563    9.1337   24.9464 C   0  0  0  0  0  0
   32.3267    8.5705   26.1376 C   0  0  0  0  0  0
   32.3084    7.1123   26.4885 C   0  0  0  0  0  0
   33.1833    6.7627   27.7029 C   0  0  0  0  0  0
   34.6751    6.9447   27.4191 C   0  0  0  0  0  0
   35.2132    5.9977   26.3504 C   0  0  0  0  0  0
   36.7081    6.1683   25.9867 C   0  0  0  0  0  0
   37.1311    5.3458   24.7210 C   0  0  0  0  0  0
   36.3936    5.7735   23.4857 C   0  0  0  0  0  0
   35.1978    5.3363   23.0764 C   0  0  0  0  0  0
   34.5436    5.8284   21.8494 C   0  0  0  0  0  0
   35.2151    6.8441   21.0334 C   0  0  0  0  0  0
   36.4108    7.3086   21.3913 C   0  0  0  0  0  0
   37.0665    6.7953   22.6340 C   0  0  0  0  0  0
   38.8758   10.2099   23.2388 C   0  0  0  0  0  0
   32.6138   13.2133   22.8051 C   0  0  0  0  0  0
   30.1029   10.8940   24.6369 C   0  0  0  0  0  0
   32.6260    8.3439   23.6468 C   0  0  0  0  0  0
   30.8347    6.7488   26.7752 C   0  0  0  0  0  0
   35.2604    7.7028   29.6476 C   0  0  0  0  0  0
   37.0357    7.6261   25.8422 C   0  0  0  0  0  0
   34.2038    3.0014   23.3740 C   0  0  0  0  0  0
   33.4594    5.1136   28.8673 H   0  0  0  0  0  0
   37.4451    7.9753   19.7752 H   0  0  0  0  0  0
   29.3096   11.5111   22.8428 H   0  0  0  0  0  0
   28.1252   11.0959   24.1108 H   0  0  0  0  0  0
  1 12  2  0  0  0
  2 17  1  0  0  0
  2 34  1  0  0  0
  3 18  1  0  0  0
  3 35  1  0  0  0
  4 35  2  0  0  0
  5 22  1  0  0  0
  6 23  1  0  0  0
  6 38  1  0  0  0
  7 28  1  0  0  0
  7 40  1  0  0  0
  8 29  2  0  0  0
  9 32  2  0  0  0
 10 12  1  0  0  0
 10 31  1  0  0  0
 11 35  1  0  0  0
 12 13  1  0  0  0
 13 14  2  0  0  0
 13 33  1  0  0  0
 14 15  1  0  0  0
 15 16  2  0  0  0
 16 17  1  0  0  0
 17 18  1  0  0  0
 18 19  1  0  0  0
 19 20  2  0  0  0
 19 36  1  0  0  0
 20 21  1  0  0  0
 21 22  1  0  0  0
 21 37  1  0  0  0
 22 23  1  0  0  0
 23 24  1  0  0  0
 24 25  1  0  0  0
 25 26  1  0  0  0
 25 39  1  0  0  0
 26 27  1  0  0  0
 27 28  2  0  0  0
 27 32  1  0  0  0
 28 29  1  0  0  0
 29 30  1  0  0  0
 30 31  2  0  0  0
 31 32  1  0  0  0
  5 41  1  0  0  0
 10 42  1  0  0  0
 11 43  1  0  0  0
 11 44  1  0  0  0
M  END
>  <CHROM.0>
63.40428585,63.51202080,175.19202340,-147.82508146,-175.22308474,-67.69940905

>  <CHROM.1>
156.40983580,-165.41774624,2.30354270,-179.94916069,-70.36482336,-111.90445900
34.52039624,8.20808445,24.32906297,-0.11406008,0.61661927,-0.58709114

>  <Name>
L_1YET

>  <RI>
0

>  <Rbt.Current_Directory>
/home/daniel/Dropbox/WORK/rDock_2013.1_src_DAG/bin

>  <Rbt.Executable>
rbdock ($Id: //depot/dev/client3/rdock/2013.1/src/exe/rbdock.cxx#4 $)

>  <Rbt.Library>
libRbt.so (2013.1, Build901 2013/11/27)

>  <Rbt.Parameter_File>
/home/daniel/dev/rdock-code//data/scripts/dock.prm

>  <Rbt.Receptor>
1YET_test.prm

>  <SCORE>
-42.2567

>  <SCORE.INTER>
-25.8972

>  <SCORE.INTER.CONST>
1

>  <SCORE.INTER.POLAR>
-2.52113

>  <SCORE.INTER.REPUL>
0

>  <SCORE.INTER.ROT>
5

>  <SCORE.INTER.VDW>
-27.7254

>  <SCORE.INTER.norm>
-0.647431

>  <SCORE.INTRA>
-10.2033

>  <SCORE.INTRA.DIHEDRAL>
-7.18852

>  <SCORE.INTRA.DIHEDRAL.0>
15.3889

>  <SCORE.INTRA.POLAR>
0

>  <SCORE.INTRA.POLAR.0>
0

>  <SCORE.INTRA.REPUL>
0

>  <SCORE.INTRA.REPUL.0>
0

>  <SCORE.INTRA.VDW>
-6.60904

>  <SCORE.INTRA.VDW.0>
7.09596

>  <SCORE.INTRA.norm>
-0.255082

>  <SCORE.RESTR>
0.0755401

>  <SCORE.RESTR.CAVITY>
0

>  <SCORE.RESTR.PHARMA>
0.0755401

>  <SCORE.RESTR.PHARMA.con_1>
0.0755401

>  <SCORE.RESTR.PHARMA.con_2>
0

>  <SCORE.RESTR.norm>
0.0018885

>  <SCORE.SYSTEM>
-6.23169

>  <SCORE.SYSTEM.CONST>
0

>  <SCORE.SYSTEM.DIHEDRAL>
2.50933

>  <SCORE.SYSTEM.POLAR>
-1.9459

>  <SCORE.SYSTEM.VDW>
-0.870301

>  <SCORE.SYSTEM.norm>
-0.155792

>  <SCORE.heavy>
40

>  <SCORE.norm>
-1.05642

$$$$
L_1YET
  rDOCK(R)          3D
libRbt.so/2013.1/901 2013/11/27
 44 45  0  0  0  0  0  0  0  0999 V2000
   38.2718    9.8744   19.9179 O   0  0  0  0  0  0
   33.4484   12.7353   23.4660 O   0  0  0  0  0  0
   31.3009   11.0008   23.6186 O   0  0  0  0  0  0
   29.9833   10.5690   25.4506 O   0  0  0  0  0  0
   32.9186    5.5401   27.9927 O   0  0  0  0  0  0
   35.4583    6.8606   28.4707 O   0  0  0  0  0  0
   34.4681    4.2492   23.8199 O   0  0  0  0  0  0
   33.4379    5.1627   21.4722 O   0  0  0  0  0  0
   38.1724    7.0827   22.7627 O   0  0  0  0  0  0
   37.1762    7.9802   20.4958 N   0  0  0  0  0  0
   29.1053   11.1835   23.4583 N   0  0  0  0  0  0
   37.6918    9.2638   20.7831 C   0  0  0  0  0  0
   37.5784    9.7854   22.1831 C   0  0  0  0  0  0
   36.3485    9.9876   22.7234 C   0  0  0  0  0  0
   36.0871   10.4906   24.0687 C   0  0  0  0  0  0
   34.9366   11.0542   24.4921 C   0  0  0  0  0  0
   33.6932   11.2928   23.7095 C   0  0  0  0  0  0
   32.3941   10.7114   24.4263 C   0  0  0  0  0  0
   32.4634    9.0977   24.6757 C   0  0  0  0  0  0
   32.3405    8.6046   25.8983 C   0  0  0  0  0  0
   32.3256    7.1692   26.3335 C   0  0  0  0  0  0
   33.2069    6.8915   27.5616 C   0  0  0  0  0  0
   34.6972    7.0579   27.2600 C   0  0  0  0  0  0
   35.2308    6.0507   26.2455 C   0  0  0  0  0  0
   36.7237    6.2011   25.8648 C   0  0  0  0  0  0
   37.1411    5.3067   24.6468 C   0  0  0  0  0  0
   36.3968    5.6613   23.3926 C   0  0  0  0  0  0
   35.1995    5.2001   23.0156 C   0  0  0  0  0  0
   34.5384    5.6195   21.7654 C   0  0  0  0  0  0
   35.2047    6.5865   20.8883 C   0  0  0  0  0  0
   36.4017    7.0720   21.2124 C   0  0  0  0  0  0
   37.0643    6.6324   22.4795 C   0  0  0  0  0  0
   38.8730   10.0778   22.8754 C   0  0  0  0  0  0
   33.3750   13.5769   24.6712 C   0  0  0  0  0  0
   30.1090   10.8866   24.2917 C   0  0  0  0  0  0
   32.6273    8.2338   23.4234 C   0  0  0  0  0  0
   30.8537    6.8219   26.6484 C   0  0  0  0  0  0
   35.3123    7.9565   29.4274 C   0  0  0  0  0  0
   37.0489    7.6483   25.6340 C   0  0  0  0  0  0
   34.8727    2.8943   24.0667 C   0  0  0  0  0  0
   31.9784    5.5062   28.4121 H   0  0  0  0  0  0
   37.4270    7.6444   19.5549 H   0  0  0  0  0  0
   29.3063   11.4449   22.4825 H   0  0  0  0  0  0
   28.1315   11.1505   23.7926 H   0  0  0  0  0  0
  1 12  2  0  0  0
  2 17  1  0  0  0
  2 34  1  0  0  0
  3 18  1  0  0  0
  3 35  1  0  0  0
  4 35  2  0  0  0
  5 22  1  0  0  0
  6 23  1  0  0  0
  6 38  1  0  0  0
  7 28  1  0  0  0
  7 40  1  0  0  0
  8 29  2  0  0  0
  9 32  2  0  0  0
 10 12  1  0  0  0
 10 31  1  0  0  0
 11 35  1  0  0  0
 12 13  1  0  0  0
 13 14  2  0  0  0
 13 33  1  0  0  0
 14 15  1  0  0  0
 15 16  2  0  0  0
 16 17  1  0  0  0
 17 18  1  0  0  0
 18 19  1  0  0  0
 19 20  2  0  0  0
 19 36  1  0  0  0
 20 21  1  0  0  0
 21 22  1  0  0  0
 21 37  1  0  0  0
 22 23  1  0  0  0
 23 24  1  0  0  0
 24 25  1  0  0  0
 25 26  1  0  0  0
 25 39  1  0  0  0
 26 27  1  0  0  0
 27 28  2  0  0  0
 27 32  1  0  0  0
 28 29  1  0  0  0
 29 30  1  0  0  0
 30 31  2  0  0  0
 31 32  1  0  0  0
  5 41  1  0  0  0
 10 42  1  0  0  0
 11 43  1  0  0  0
 11 44  1  0  0  0
M  END
>  <CHROM.0>
-178.95970801,-57.92711455,-67.50372691,-135.85604725,-170.23795659,-68.10986109

>  <CHROM.1>
-56.52893286,-162.99326039,-0.25732724,-71.25667041,-71.42359763,-66.69469689
34.56178822,8.16000724,24.18326821,-0.17552377,0.65176080,-0.57997841

>  <Name>
L_1YET

>  <RI>
0

>  <Rbt.Current_Directory>
/home/daniel/Dropbox/WORK/rDock_2013.1_src_DAG/bin

>  <Rbt.Executable>
rbdock ($Id: //depot/dev/client3/rdock/2013.1/src/exe/rbdock.cxx#4 $)

>  <Rbt.Library>
libRbt.so (2013.1, Build901 2013/11/27)

>  <Rbt.Parameter_File>
/home/daniel/dev/rdock-code//data/scripts/dock.prm

>  <Rbt.Receptor>
1YET_test.prm

>  <SCORE>
-42.1421

>  <SCORE.INTER>
-26.0579

>  <SCORE.INTER.CONST>
1

>  <SCORE.INTER.POLAR>
-2.56305

>  <SCORE.INTER.REPUL>
0

>  <SCORE.INTER.ROT>
5

>  <SCORE.INTER.VDW>
-27.7435

>  <SCORE.INTER.norm>
-0.651448

>  <SCORE.INTRA>
-9.60247

>  <SCORE.INTRA.DIHEDRAL>
-8.58268

>  <SCORE.INTRA.DIHEDRAL.0>
15.3889

>  <SCORE.INTRA.POLAR>
0

>  <SCORE.INTRA.POLAR.0>
0

>  <SCORE.INTRA.REPUL>
0

>  <SCORE.INTRA.REPUL.0>
0

>  <SCORE.INTRA.VDW>
-5.31113

>  <SCORE.INTRA.VDW.0>
7.09596

>  <SCORE.INTRA.norm>
-0.240062

>  <SCORE.RESTR>
0.0405093

>  <SCORE.RESTR.CAVITY>
0

>  <SCORE.RESTR.PHARMA>
0.0405093

>  <SCORE.RESTR.PHARMA.con_1>
0.0405093

>  <SCORE.RESTR.PHARMA.con_2>
0

>  <SCORE.RESTR.norm>
0.00101273

>  <SCORE.SYSTEM>
-6.52222

>  <SCORE.SYSTEM.CONST>
0

>  <SCORE.SYSTEM.DIHEDRAL>
3.64388

>  <SCORE.SYSTEM.POLAR>
-2.35875

>  <SCORE.SYSTEM.VDW>
-0.324418

>  <SCORE.SYSTEM.norm>
-0.163056

>  <SCORE.heavy>
40

>  <SCORE.norm>
-1.05355

$$$$
L_1YET
  rDOCK(R)          3D
libRbt.so/2013.1/901 2013/11/27
 44 45  0  0  0  0  0  0  0  0999 V2000
   38.2876   10.1499   20.2246 O   0  0  0  0  0  0
   33.4924   12.8657   23.9216 O   0  0  0  0  0  0
   31.3189   11.1575   23.9634 O   0  0  0  0  0  0
   29.9798   10.5198   25.7180 O   0  0  0  0  0  0
   32.8379    5.4219   28.0086 O   0  0  0  0  0  0
   35.3948    6.6733   28.5729 O   0  0  0  0  0  0
   34.3854    4.3594   23.7712 O   0  0  0  0  0  0
   33.3784    5.4266   21.4789 O   0  0  0  0  0  0
   38.1353    7.1951   22.8971 O   0  0  0  0  0  0
   37.1618    8.2412   20.6847 N   0  0  0  0  0  0
   29.1215   11.2247   23.7473 N   0  0  0  0  0  0
   37.6951    9.4975   21.0498 C   0  0  0  0  0  0
   37.5837    9.9363   22.4782 C   0  0  0  0  0  0
   36.3546   10.1242   23.0256 C   0  0  0  0  0  0
   36.0952   10.5498   24.3977 C   0  0  0  0  0  0
   34.9513   11.1043   24.8503 C   0  0  0  0  0  0
   33.7149   11.4077   24.0793 C   0  0  0  0  0  0
   32.4043   10.8041   24.7559 C   0  0  0  0  0  0
   32.4488    9.1775   24.9086 C   0  0  0  0  0  0
   32.3137    8.6143   26.0992 C   0  0  0  0  0  0
   32.2758    7.1558   26.4477 C   0  0  0  0  0  0
   33.1479    6.7921   27.6600 C   0  0  0  0  0  0
   34.6416    6.9539   27.3737 C   0  0  0  0  0  0
   35.1646    6.0012   26.3025 C   0  0  0  0  0  0
   36.6610    6.1517   25.9363 C   0  0  0  0  0  0
   37.0702    5.3255   24.6684 C   0  0  0  0  0  0
   36.3365    5.7654   23.4352 C   0  0  0  0  0  0
   35.1340    5.3455   23.0275 C   0  0  0  0  0  0
   34.4844    5.8486   21.8025 C   0  0  0  0  0  0
   35.1684    6.8562   20.9868 C   0  0  0  0  0  0
   36.3711    7.3036   21.3432 C   0  0  0  0  0  0
   37.0219    6.7792   22.5839 C   0  0  0  0  0  0
   38.8795   10.1674   23.1908 C   0  0  0  0  0  0
   32.7035   13.2615   22.7438 C   0  0  0  0  0  0
   30.1180   10.9268   24.5889 C   0  0  0  0  0  0
   32.6051    8.3876   23.6075 C   0  0  0  0  0  0
   30.7977    6.8124   26.7366 C   0  0  0  0  0  0
   35.2831    7.7253   29.5821 C   0  0  0  0  0  0
   37.0085    7.6051   25.7935 C   0  0  0  0  0  0
   34.8027    3.0045   23.9961 C   0  0  0  0  0  0
   33.3815    5.1469   28.8391 H   0  0  0  0  0  0
   37.4115    7.9585   19.7263 H   0  0  0  0  0  0
   29.3332   11.5669   22.7991 H   0  0  0  0  0  0
   28.1427   11.1118   24.0476 H   0  0  0  0  0  0
  1 12  2  0  0  0
  2 17  1  0  0  0
  2 34  1  0  0  0
  3 18  1  0  0  0
  3 35  1  0  0  0
  4 35  2  0  0  0
  5 22  1  0  0  0
  6 23  1  0  0  0
  6 38  1  0  0  0
  7 28  1  0  0  0
  7 40  1  0  0  0
  8 29  2  0  0  0
  9 32  2  0  0  0
 10 12  1  0  0  0
 10 31  1  0  0  0
 11 35  1  0  0  0
 12 13  1  0  0  0
 13 14  2  0  0  0
 13 33  1  0  0  0
 14 15  1  0  0  0
 15 16  2  0  0  0
 16 17  1  0  0  0
 17 18  1  0  0  0
 18 19  1  0  0  0
 19 20  2  0  0  0
 19 36  1  0  0  0
 20 21  1  0  0  0
 21 22  1  0  0  0
 21 37  1  0  0  0
 22 23  1  0  0  0
 23 24  1  0  0  0
 24 25  1  0  0  0
 25 26  1  0  0  0
 25 39  1  0  0  0
 26 27  1  0  0  0
 27 28  2  0  0  0
 27 32  1  0  0  0
 28 29  1  0  0  0
 29 30  1  0  0  0
 30 31  2  0  0  0
 31 32  1  0  0  0
  5 41  1  0  0  0
 10 42  1  0  0  0
 11 43  1  0  0  0
 11 44  1  0  0  0
M  END
>  <CHROM.0>
63.18941445,63.54346458,174.28404310,-25.37738716,2.95876612,-67.79821312

>  <CHROM.1>
154.09194924,-167.55239793,3.08258645,-178.19134851,-72.60991802,-63.29034232
34.51950594,8.22010510,24.30091204,-0.14581739,0.61779819,-0.59778140

>  <Name>
L_1YET

>  <RI>
0

>  <Rbt.Current_Directory>
/home/daniel/Dropbox/WORK/rDock_2013.1_src_DAG/bin

>  <Rbt.Executable>
rbdock ($Id: //depot/dev/client3/rdock/2013.1/src/exe/rbdock.cxx#4 $)

>  <Rbt.Library>
libRbt.so (2013.1, Build901 2013/11/27)

>  <Rbt.Parameter_File>
/home/daniel/dev/rdock-code//data/scripts/dock.prm

>  <Rbt.Receptor>
1YET_test.prm

>  <SCORE>
-42.0992

>  <SCORE.INTER>
-25.5406

>  <SCORE.INTER.CONST>
1

>  <SCORE.INTER.POLAR>
-2.49092

>  <SCORE.INTER.REPUL>
0

>  <SCORE.INTER.ROT>
5

>  <SCORE.INTER.VDW>
-27.4715

>  <SCORE.INTER.norm>
-0.638516

>  <SCORE.INTRA>
-10.4245

>  <SCORE.INTRA.DIHEDRAL>
-7.05334

>  <SCORE.INTRA.DIHEDRAL.0>
15.3889

>  <SCORE.INTRA.POLAR>
0

>  <SCORE.INTRA.POLAR.0>
0

>  <SCORE.INTRA.REPUL>
0

>  <SCORE.INTRA.REPUL.0>
0

>  <SCORE.INTRA.VDW>
-6.89787

>  <SCORE.INTRA.VDW.0>
7.09596

>  <SCORE.INTRA.norm>
-0.260613

>  <SCORE.RESTR>
0.0554543

>  <SCORE.RESTR.CAVITY>
0

>  <SCORE.RESTR.PHARMA>
0.0554543

>  <SCORE.RESTR.PHARMA.con_1>
0.0554543

>  <SCORE.RESTR.PHARMA.con_2>
0

>  <SCORE.RESTR.norm>
0.00138636

>  <SCORE.SYSTEM>
-6.18948

>  <SCORE.SYSTEM.CONST>
0

>  <SCORE.SYSTEM.DIHEDRAL>
2.74048

>  <SCORE.SYSTEM.POLAR>
-1.94546

>  <SCORE.SYSTEM.VDW>
-0.945161

>  <SCORE.SYSTEM.norm>
-0.154737

>  <SCORE.heavy>
40

>  <SCORE.norm>
-1.05248

$$$$
L_1YET
  rDOCK(R)          3D
libRbt.so/2013.1/901 2013/11/27
 44 45  0  0  0  0  0  0  0  0999 V2000
   38.3035   10.2350   20.2913 O   0  0  0  0  0  0
   33.4972   12.8955   24.0140 O   0  0  0  0  0  0
   31.3222   11.1887   24.0207 O   0  0  0  0  0  0
   29.9832   10.6571   25.8103 O   0  0  0  0  0  0
   32.8219    5.3879   27.9790 O   0  0  0  0  0  0
   35.3778    6.6279   28.5725 O   0  0  0  0  0  0
   34.3839    4.3919   23.7308 O   0  0  0  0  0  0
   33.3861    5.4965   21.4523 O   0  0  0  0  0  0
   38.1393    7.2380   22.9157 O   0  0  0  0  0  0
   37.1746    8.3202   20.7168 N   0  0  0  0  0  0
   29.1252   11.2976   23.8176 N   0  0  0  0  0  0
   37.7076    9.5700   21.1039 C   0  0  0  0  0  0
   37.5913    9.9860   22.5386 C   0  0  0  0  0  0
   36.3605   10.1662   23.0846 C   0  0  0  0  0  0
   36.0964   10.5701   24.4624 C   0  0  0  0  0  0
   34.9514   11.1182   24.9196 C   0  0  0  0  0  0
   33.7179   11.4350   24.1492 C   0  0  0  0  0  0
   32.4045   10.8217   24.8113 C   0  0  0  0  0  0
   32.4471    9.1929   24.9382 C   0  0  0  0  0  0
   32.3072    8.6108   26.1191 C   0  0  0  0  0  0
   32.2669    7.1470   26.4441 C   0  0  0  0  0  0
   33.1343    6.7632   27.6535 C   0  0  0  0  0  0
   34.6292    6.9283   27.3752 C   0  0  0  0  0  0
   35.1553    5.9924   26.2908 C   0  0  0  0  0  0
   36.6531    6.1474   25.9325 C   0  0  0  0  0  0
   37.0663    5.3412   24.6531 C   0  0  0  0  0  0
   36.3373    5.8014   23.4244 C   0  0  0  0  0  0
   35.1360    5.3891   23.0057 C   0  0  0  0  0  0
   34.4912    5.9123   21.7865 C   0  0  0  0  0  0
   35.1790    6.9323   20.9896 C   0  0  0  0  0  0
   36.3808    7.3728   21.3574 C   0  0  0  0  0  0
   37.0267    6.8281   22.5919 C   0  0  0  0  0  0
   38.8848   10.2045   23.2596 C   0  0  0  0  0  0
   32.6976   13.3094   22.8496 C   0  0  0  0  0  0
   30.1214   11.0126   24.6639 C   0  0  0  0  0  0
   32.6075    8.4237   23.6251 C   0  0  0  0  0  0
   30.7875    6.8002   26.7222 C   0  0  0  0  0  0
   35.2589    7.6611   29.6001 C   0  0  0  0  0  0
   37.0023    7.6026   25.8142 C   0  0  0  0  0  0
   34.8208    3.0468   23.9764 C   0  0  0  0  0  0
   31.9013    5.3439   28.4389 H   0  0  0  0  0  0
   37.4276    8.0526   19.7549 H   0  0  0  0  0  0
   29.3369   11.5944   22.8543 H   0  0  0  0  0  0
   28.1465   11.2202   24.1294 H   0  0  0  0  0  0
  1 12  2  0  0  0
  2 17  1  0  0  0
  2 34  1  0  0  0
  3 18  1  0  0  0
  3 35  1  0  0  0
  4 35  2  0  0  0
  5 22  1  0  0  0
  6 23  1  0  0  0
  6 38  1  0  0  0
  7 28  1  0  0  0
  7 40  1  0  0  0
  8 29  2  0  0  0
  9 32  2  0  0  0
 10 12  1  0  0  0
 10 31  1  0  0  0
 11 35  1  0  0  0
 12 13  1  0  0  0
 13 14  2  0  0  0
 13 33  1  0  0  0
 14 15  1  0  0  0
 15 16  2  0  0  0
 16 17  1  0  0  0
 17 18  1  0  0  0
 18 19  1  0  0  0
 19 20  2  0  0  0
 19 36  1  0  0  0
 20 21  1  0  0  0
 21 22  1  0  0  0
 21 37  1  0  0  0
 22 23  1  0  0  0
 23 24  1  0  0  0
 24 25  1  0  0  0
 25 26  1  0  0  0
 25 39  1  0  0  0
 26 27  1  0  0  0
 27 28  2  0  0  0
 27 32  1  0  0  0
 28 29  1  0  0  0
 29 30  1  0  0  0
 30 31  2  0  0  0
 31 32  1  0  0  0
  5 41  1  0  0  0
 10 42  1  0  0  0
 11 43  1  0  0  0
 11 44  1  0  0  0
M  END
>  <CHROM.0>
-50.66234876,-58.37190006,-65.66655080,-147.16143215,8.39855143,64.27525233

>  <CHROM.1>
154.87859958,-164.45537026,4.14796579,-74.55679068,-72.37334405,-60.94840536
34.51687438,8.25038882,24.32598368,-0.15991931,0.61793058,-0.57742938

>  <Name>
L_1YET

>  <RI>
0

>  <Rbt.Current_Directory>
/home/daniel/Dropbox/WORK/rDock_2013.1_src_DAG/bin

>  <Rbt.Executable>
rbdock ($Id: //depot/dev/client3/rdock/2013.1/src/exe/rbdock.cxx#4 $)

>  <Rbt.Library>
libRbt.so (2013.1, Build901 2013/11/27)

>  <Rbt.Parameter_File>
/home/daniel/dev/rdock-code//data/scripts/dock.prm

>  <Rbt.Receptor>
1YET_test.prm

>  <SCORE>
-41.9544

>  <SCORE.INTER>
-26.3879

>  <SCORE.INTER.CONST>
1

>  <SCORE.INTER.POLAR>
-2.67776

>  <SCORE.INTER.REPUL>
0

>  <SCORE.INTER.ROT>
5

>  <SCORE.INTER.VDW>
-27.6835

>  <SCORE.INTER.norm>
-0.659697

>  <SCORE.INTRA>
-9.08954

>  <SCORE.INTRA.DIHEDRAL>
-5.97092

>  <SCORE.INTRA.DIHEDRAL.0>
15.3889

>  <SCORE.INTRA.POLAR>
0

>  <SCORE.INTRA.POLAR.0>
0

>  <SCORE.INTRA.REPUL>
0

>  <SCORE.INTRA.REPUL.0>
0

>  <SCORE.INTRA.VDW>
-6.10408

>  <SCORE.INTRA.VDW.0>
7.09596

>  <SCORE.INTRA.norm>
-0.227238

>  <SCORE.RESTR>
0.0826137

>  <SCORE.RESTR.CAVITY>
0

>  <SCORE.RESTR.PHARMA>
0.0826137

>  <SCORE.RESTR.PHARMA.con_1>
0.0826137

>  <SCORE.RESTR.PHARMA.con_2>
0

>  <SCORE.RESTR.norm>
0.00206534

>  <SCORE.SYSTEM>
-6.55962

>  <SCORE.SYSTEM.CONST>
0

>  <SCORE.SYSTEM.DIHEDRAL>
2.78105

>  <SCORE.SYSTEM.POLAR>
-1.78356

>  <SCORE.SYSTEM.REPUL>
0.00897307

>  <SCORE.SYSTEM.VDW>
-1.93092

>  <SCORE.SYSTEM.norm>
-0.163991

>  <SCORE.heavy>
40

>  <SCORE.norm>
-1.04886

$$$$
L_1YET
  rDOCK(R)          3D
libRbt.so/2013.1/901 2013/11/27
 44 45  0  0  0  0  0  0  0  0999 V2000
   38.2611    9.8772   19.8677 O   0  0  0  0  0  0
   33.5104   12.9409   23.3437 O   0  0  0  0  0  0
   31.3699   11.2173   23.6455 O   0  0  0  0  0  0
   30.1273   11.2635   25.5775 O   0  0  0  0  0  0
   33.0917    6.0265   28.2994 O   0  0  0  0  0  0
   35.6387    7.3744   28.6432 O   0  0  0  0  0  0
   34.5531    4.4913   24.1779 O   0  0  0  0  0  0
   33.4706    5.2633   21.8031 O   0  0  0  0  0  0
   38.2284    7.2591   22.8744 O   0  0  0  0  0  0
   37.1818    8.0201   20.5805 N   0  0  0  0  0  0
   29.1672   11.3399   23.5306 N   0  0  0  0  0  0
   37.7011    9.3188   20.7799 C   0  0  0  0  0  0
   37.6170    9.9224   22.1487 C   0  0  0  0  0  0
   36.3987   10.1556   22.7027 C   0  0  0  0  0  0
   36.1656   10.7373   24.0211 C   0  0  0  0  0  0
   35.0234   11.3244   24.4352 C   0  0  0  0  0  0
   33.7630   11.5155   23.6670 C   0  0  0  0  0  0
   32.4807   10.9769   24.4450 C   0  0  0  0  0  0
   32.5584    9.3808   24.7881 C   0  0  0  0  0  0
   32.4629    8.9611   26.0401 C   0  0  0  0  0  0
   32.4600    7.5540   26.5598 C   0  0  0  0  0  0
   33.3682    7.3501   27.7829 C   0  0  0  0  0  0
   34.8513    7.4991   27.4397 C   0  0  0  0  0  0
   35.3647    6.4339   26.4753 C   0  0  0  0  0  0
   36.8487    6.5622   26.0541 C   0  0  0  0  0  0
   37.2413    5.5975   24.8825 C   0  0  0  0  0  0
   36.4695    5.8766   23.6259 C   0  0  0  0  0  0
   35.2651    5.3932   23.3030 C   0  0  0  0  0  0
   34.5764    5.7373   22.0448 C   0  0  0  0  0  0
   35.2217    6.6511   21.0976 C   0  0  0  0  0  0
   36.4247    7.1556   21.3663 C   0  0  0  0  0  0
   37.1153    6.7922   22.6426 C   0  0  0  0  0  0
   38.9257   10.2560   22.7942 C   0  0  0  0  0  0
   33.4426   13.8494   24.4997 C   0  0  0  0  0  0
   30.2054   11.2731   24.3718 C   0  0  0  0  0  0
   32.6968    8.4443   23.5859 C   0  0  0  0  0  0
   30.9959    7.2252   26.9267 C   0  0  0  0  0  0
   35.5307    8.5358   29.5247 C   0  0  0  0  0  0
   37.1662    7.9934   25.7309 C   0  0  0  0  0  0
   35.0235    3.1993   24.5901 C   0  0  0  0  0  0
   33.2817    5.3257   27.5689 H   0  0  0  0  0  0
   37.4128    7.6292   19.6560 H   0  0  0  0  0  0
   29.3282   11.3428   22.5132 H   0  0  0  0  0  0
   28.2070   11.3883   23.9003 H   0  0  0  0  0  0
  1 12  2  0  0  0
  2 17  1  0  0  0
  2 34  1  0  0  0
  3 18  1  0  0  0
  3 35  1  0  0  0
  4 35  2  0  0  0
  5 22  1  0  0  0
  6 23  1  0  0  0
  6 38  1  0  0  0
  7 28  1  0  0  0
  7 40  1  0  0  0
  8 29  2  0  0  0
  9 32  2  0  0  0
 10 12  1  0  0  0
 10 31  1  0  0  0
 11 35  1  0  0  0
 12 13  1  0  0  0
 13 14  2  0  0  0
 13 33  1  0  0  0
 14 15  1  0  0  0
 15 16  2  0  0  0
 16 17  1  0  0  0
 17 18  1  0  0  0
 18 19  1  0  0  0
 19 20  2  0  0  0
 19 36  1  0  0  0
 20 21  1  0  0  0
 21 22  1  0  0  0
 21 37  1  0  0  0
 22 23  1  0  0  0
 23 24  1  0  0  0
 24 25  1  0  0  0
 25 26  1  0  0  0
 25 39  1  0  0  0
 26 27  1  0  0  0
 27 28  2  0  0  0
 27 32  1  0  0  0
 28 29  1  0  0  0
 29 30  1  0  0  0
 30 31  2  0  0  0
 31 32  1  0  0  0
  5 41  1  0  0  0
 10 42  1  0  0  0
 11 43  1  0  0  0
 11 44  1  0  0  0
M  END
>  <CHROM.0>
177.86482463,-58.43087534,-170.97360079,-151.76782912,-178.54487184,170.78655321

>  <CHROM.1>
-57.35429333,-156.99237375,7.58653003,59.11276853,-72.48427380,-60.84664911
34.65207562,8.42867326,24.30892799,-0.19345360,0.67366735,-0.65191717

>  <Name>
L_1YET

>  <RI>
0

>  <Rbt.Current_Directory>
/home/daniel/Dropbox/WORK/rDock_2013.1_src_DAG/bin

>  <Rbt.Executable>
rbdock ($Id: //depot/dev/client3/rdock/2013.1/src/exe/rbdock.cxx#4 $)

>  <Rbt.Library>
libRbt.so (2013.1, Build901 2013/11/27)

>  <Rbt.Parameter_File>
/home/daniel/dev/rdock-code//data/scripts/dock.prm

>  <Rbt.Receptor>
1YET_test.prm

>  <SCORE>
-41.9533

>  <SCORE.INTER>
-25.2106

>  <SCORE.INTER.CONST>
1

>  <SCORE.INTER.POLAR>
-2.55145

>  <SCORE.INTER.REPUL>
0.0503691

>  <SCORE.INTER.ROT>
5

>  <SCORE.INTER.VDW>
-27.1875

>  <SCORE.INTER.norm>
-0.630265

>  <SCORE.INTRA>
-10.0149

>  <SCORE.INTRA.DIHEDRAL>
-8.10734

>  <SCORE.INTRA.DIHEDRAL.0>
15.3889

>  <SCORE.INTRA.POLAR>
0

>  <SCORE.INTRA.POLAR.0>
0

>  <SCORE.INTRA.REPUL>
0

>  <SCORE.INTRA.REPUL.0>
0

>  <SCORE.INTRA.VDW>
-5.96123

>  <SCORE.INTRA.VDW.0>
7.09596

>  <SCORE.INTRA.norm>
-0.250372

>  <SCORE.RESTR>
0.05226

>  <SCORE.RESTR.CAVITY>
0

>  <SCORE.RESTR.PHARMA>
0.05226

>  <SCORE.RESTR.PHARMA.con_1>
0.05226

>  <SCORE.RESTR.PHARMA.con_2>
0

>  <SCORE.RESTR.norm>
0.0013065

>  <SCORE.SYSTEM>
-6.78011

>  <SCORE.SYSTEM.CONST>
0

>  <SCORE.SYSTEM.DIHEDRAL>
2.28807

>  <SCORE.SYSTEM.POLAR>
-1.9037

>  <SCORE.SYSTEM.VDW>
-1.45158

>  <SCORE.SYSTEM.norm>
-0.169503

>  <SCORE.heavy>
40

>  <SCORE.norm>
-1.04883

$$$$
L_1YET
  rDOCK(R)          3D
libRbt.so/2013.1/901 2013/11/27
 44 45  0  0  0  0  0  0  0  0999 V2000
   38.2445   10.1921   20.2127 O   0  0  0  0  0  0
   33.4544   12.8723   23.9422 O   0  0  0  0  0  0
   31.2922   11.1502   23.9947 O   0  0  0  0  0  0
   29.9707   10.5840   25.7869 O   0  0  0  0  0  0
   32.8719    5.4188   28.0227 O   0  0  0  0  0  0
   35.4241    6.6858   28.5734 O   0  0  0  0  0  0
   34.4007    4.3720   23.7746 O   0  0  0  0  0  0
   33.3732    5.4359   21.4899 O   0  0  0  0  0  0
   38.1271    7.2328   22.8820 O   0  0  0  0  0  0
   37.1338    8.2756   20.6770 N   0  0  0  0  0  0
   29.0927   11.2141   23.7995 N   0  0  0  0  0  0
   37.6612    9.5348   21.0406 C   0  0  0  0  0  0
   37.5555    9.9709   22.4702 C   0  0  0  0  0  0
   36.3286   10.1503   23.0253 C   0  0  0  0  0  0
   36.0747   10.5723   24.3995 C   0  0  0  0  0  0
   34.9301   11.1189   24.8596 C   0  0  0  0  0  0
   33.6871   11.4155   24.0966 C   0  0  0  0  0  0
   32.3845   10.8026   24.7802 C   0  0  0  0  0  0
   32.4403    9.1761   24.9304 C   0  0  0  0  0  0
   32.3159    8.6104   26.1209 C   0  0  0  0  0  0
   32.2894    7.1513   26.4677 C   0  0  0  0  0  0
   33.1711    6.7915   27.6742 C   0  0  0  0  0  0
   34.6620    6.9632   27.3791 C   0  0  0  0  0  0
   35.1846    6.0153   26.3035 C   0  0  0  0  0  0
   36.6778    6.1758   25.9285 C   0  0  0  0  0  0
   37.0846    5.3540   24.6571 C   0  0  0  0  0  0
   36.3407    5.7909   23.4289 C   0  0  0  0  0  0
   35.1385    5.3638   23.0278 C   0  0  0  0  0  0
   34.4783    5.8645   21.8074 C   0  0  0  0  0  0
   35.1510    6.8776   20.9891 C   0  0  0  0  0  0
   36.3530    7.3321   21.3389 C   0  0  0  0  0  0
   37.0146    6.8102   22.5749 C   0  0  0  0  0  0
   38.8542   10.2093   23.1754 C   0  0  0  0  0  0
   32.6283   13.2621   22.7882 C   0  0  0  0  0  0
   30.0975   10.9466   24.6414 C   0  0  0  0  0  0
   32.5939    8.3889   23.6272 C   0  0  0  0  0  0
   30.8153    6.7980   26.7649 C   0  0  0  0  0  0
   35.3127    7.7362   29.5843 C   0  0  0  0  0  0
   37.0151    7.6316   25.7856 C   0  0  0  0  0  0
   34.8055    3.0068   23.9560 C   0  0  0  0  0  0
   33.4319    5.1421   28.8417 H   0  0  0  0  0  0
   37.3795    7.9958   19.7166 H   0  0  0  0  0  0
   29.2948   11.5188   22.8366 H   0  0  0  0  0  0
   28.1169   11.1152   24.1144 H   0  0  0  0  0  0
  1 12  2  0  0  0
  2 17  1  0  0  0
  2 34  1  0  0  0
  3 18  1  0  0  0
  3 35  1  0  0  0
  4 35  2  0  0  0
  5 22  1  0  0  0
  6 23  1  0  0  0
  6 38  1  0  0  0
  7 28  1  0  0  0
  7 40  1  0  0  0
  8 29  2  0  0  0
  9 32  2  0  0  0
 10 12  1  0  0  0
 10 31  1  0  0  0
 11 35  1  0  0  0
 12 13  1  0  0  0
 13 14  2  0  0  0
 13 33  1  0  0  0
 14 15  1  0  0  0
 15 16  2  0  0  0
 16 17  1  0  0  0
 17 18  1  0  0  0
 18 19  1  0  0  0
 19 20  2  0  0  0
 19 36  1  0  0  0
 20 21  1  0  0  0
 21 22  1  0  0  0
 21 37  1  0  0  0
 22 23  1  0  0  0
 23 24  1  0  0  0
 24 25  1  0  0  0
 25 26  1  0  0  0
 25 39  1  0  0  0
 26 27  1  0  0  0
 27 28  2  0  0  0
 27 32  1  0  0  0
 28 29  1  0  0  0
 29 30  1  0  0  0
 30 31  2  0  0  0
 31 32  1  0  0  0
  5 41  1  0  0  0
 10 42  1  0  0  0
 11 43  1  0  0  0
 11 44  1  0  0  0
M  END
>  <CHROM.0>
63.50720498,64.22726048,-64.89521259,-23.55665872,-168.01278872,-67.44703084

>  <CHROM.1>
155.53085968,-165.81498622,4.15802002,-178.96924835,-72.65544552,-65.57677871
34.51216488,8.23574309,24.30970409,-0.14642976,0.62190061,-0.60091740

>  <Name>
L_1YET

>  <RI>
0

>  <Rbt.Current_Directory>
/home/daniel/Dropbox/WORK/rDock_2013.1_src_DAG/bin

>  <Rbt.Executable>
rbdock ($Id: //depot/dev/client3/rdock/2013.1/src/exe/rbdock.cxx#4 $)

>  <Rbt.Library>
libRbt.so (2013.1, Build901 2013/11/27)

>  <Rbt.Parameter_File>
/home/daniel/dev/rdock-code//data/scripts/dock.prm

>  <Rbt.Receptor>
1YET_test.prm

>  <SCORE>
-41.9468

>  <SCORE.INTER>
-26.2162

>  <SCORE.INTER.CONST>
1

>  <SCORE.INTER.POLAR>
-2.67177

>  <SCORE.INTER.REPUL>
0

>  <SCORE.INTER.ROT>
5

>  <SCORE.INTER.VDW>
-27.5321

>  <SCORE.INTER.norm>
-0.655404

>  <SCORE.INTRA>
-10.3273

>  <SCORE.INTRA.DIHEDRAL>
-6.90496

>  <SCORE.INTRA.DIHEDRAL.0>
15.3889

>  <SCORE.INTRA.POLAR>
0

>  <SCORE.INTRA.POLAR.0>
0

>  <SCORE.INTRA.REPUL>
0

>  <SCORE.INTRA.REPUL.0>
0

>  <SCORE.INTRA.VDW>
-6.8748

>  <SCORE.INTRA.VDW.0>
7.09596

>  <SCORE.INTRA.norm>
-0.258182

>  <SCORE.RESTR>
0.0818133

>  <SCORE.RESTR.CAVITY>
0

>  <SCORE.RESTR.PHARMA>
0.0818133

>  <SCORE.RESTR.PHARMA.con_1>
0.0818133

>  <SCORE.RESTR.PHARMA.con_2>
0

>  <SCORE.RESTR.norm>
0.00204533

>  <SCORE.SYSTEM>
-5.48522

>  <SCORE.SYSTEM.CONST>
0

>  <SCORE.SYSTEM.DIHEDRAL>
3.0885

>  <SCORE.SYSTEM.POLAR>
-1.82652

>  <SCORE.SYSTEM.VDW>
-0.81931

>  <SCORE.SYSTEM.norm>
-0.137131

>  <SCORE.heavy>
40

>  <SCORE.norm>
-1.04867

$$$$
L_1YET
  rDOCK(R)          3D
libRbt.so/2013.1/901 2013/11/27
 44 45  0  0  0  0  0  0  0  0999 V2000
   38.2833   10.1802   20.2210 O   0  0  0  0  0  0
   33.5001   12.8875   23.9397 O   0  0  0  0  0  0
   31.3332   11.1715   23.9984 O   0  0  0  0  0  0
   30.0073   10.5500   25.7688 O   0  0  0  0  0  0
   32.8968    5.4511   28.0482 O   0  0  0  0  0  0
   35.4524    6.7132   28.5945 O   0  0  0  0  0  0
   34.4232    4.3841   23.8043 O   0  0  0  0  0  0
   33.3989    5.4422   21.5155 O   0  0  0  0  0  0
   38.1576    7.2313   22.9014 O   0  0  0  0  0  0
   37.1673    8.2685   20.6923 N   0  0  0  0  0  0
   29.1342   11.2325   23.7967 N   0  0  0  0  0  0
   37.6981    9.5277   21.0513 C   0  0  0  0  0  0
   37.5935    9.9694   22.4792 C   0  0  0  0  0  0
   36.3670   10.1542   23.0334 C   0  0  0  0  0  0
   36.1141   10.5822   24.4060 C   0  0  0  0  0  0
   34.9709   11.1336   24.8639 C   0  0  0  0  0  0
   33.7288   11.4307   24.0996 C   0  0  0  0  0  0
   32.4245   10.8239   24.7853 C   0  0  0  0  0  0
   32.4758    9.1979   24.9417 C   0  0  0  0  0  0
   32.3497    8.6370   26.1343 C   0  0  0  0  0  0
   32.3192    7.1792   26.4866 C   0  0  0  0  0  0
   33.1998    6.8217   27.6945 C   0  0  0  0  0  0
   34.6912    6.9882   27.3990 C   0  0  0  0  0  0
   35.2113    6.0348   26.3270 C   0  0  0  0  0  0
   36.7050    6.1899   25.9517 C   0  0  0  0  0  0
   37.1098    5.3621   24.6834 C   0  0  0  0  0  0
   36.3672    5.7964   23.4535 C   0  0  0  0  0  0
   35.1639    5.3711   23.0538 C   0  0  0  0  0  0
   34.5052    5.8689   21.8315 C   0  0  0  0  0  0
   35.1807    6.8771   21.0094 C   0  0  0  0  0  0
   36.3839    7.3296   21.3577 C   0  0  0  0  0  0
   37.0439    6.8106   22.5958 C   0  0  0  0  0  0
   38.8927   10.2070   23.1836 C   0  0  0  0  0  0
   32.6928   13.2767   22.7722 C   0  0  0  0  0  0
   30.1369   10.9452   24.6345 C   0  0  0  0  0  0
   32.6274    8.4054   23.6415 C   0  0  0  0  0  0
   30.8441    6.8311   26.7850 C   0  0  0  0  0  0
   35.2919    7.7358   29.6270 C   0  0  0  0  0  0
   37.0463    7.6442   25.8033 C   0  0  0  0  0  0
   34.1170    3.0588   23.3459 C   0  0  0  0  0  0
   31.9619    5.4056   28.4782 H   0  0  0  0  0  0
   37.4124    7.9844   19.7330 H   0  0  0  0  0  0
   29.3387   11.5651   22.8435 H   0  0  0  0  0  0
   28.1576   11.1211   24.1049 H   0  0  0  0  0  0
  1 12  2  0  0  0
  2 17  1  0  0  0
  2 34  1  0  0  0
  3 18  1  0  0  0
  3 35  1  0  0  0
  4 35  2  0  0  0
  5 22  1  0  0  0
  6 23  1  0  0  0
  6 38  1  0  0  0
  7 28  1  0  0  0
  7 40  1  0  0  0
  8 29  2  0  0  0
  9 32  2  0  0  0
 10 12  1  0  0  0
 10 31  1  0  0  0
 11 35  1  0  0  0
 12 13  1  0  0  0
 13 14  2  0  0  0
 13 33  1  0  0  0
 14 15  1  0  0  0
 15 16  2  0  0  0
 16 17  1  0  0  0
 17 18  1  0  0  0
 18 19  1  0  0  0
 19 20  2  0  0  0
 19 36  1  0  0  0
 20 21  1  0  0  0
 21 22  1  0  0  0
 21 37  1  0  0  0
 22 23  1  0  0  0
 23 24  1  0  0  0
 24 25  1  0  0  0
 25 26  1  0  0  0
 25 39  1  0  0  0
 26 27  1  0  0  0
 27 28  2  0  0  0
 27 32  1  0  0  0
 28 29  1  0  0  0
 29 30  1  0  0  0
 30 31  2  0  0  0
 31 32  1  0  0  0
  5 41  1  0  0  0
 10 42  1  0  0  0
 11 43  1  0  0  0
 11 44  1  0  0  0
M  END
>  <CHROM.0>
-48.68618820,-57.12905976,-63.36931991,-28.66310976,-170.31671356,-67.02182589

>  <CHROM.1>
154.61259100,-167.19299921,3.29464077,-71.95443005,-69.83995485,-113.70165560
34.52251718,8.24751518,24.30611130,-0.09574077,0.62555445,-0.58187609

>  <Name>
L_1YET

>  <RI>
0

>  <Rbt.Current_Directory>
/home/daniel/Dropbox/WORK/rDock_2013.1_src_DAG/bin

>  <Rbt.Executable>
rbdock ($Id: //depot/dev/client3/rdock/2013.1/src/exe/rbdock.cxx#4 $)

>  <Rbt.Library>
libRbt.so (2013.1, Build901 2013/11/27)

>  <Rbt.Parameter_File>
/home/daniel/dev/rdock-code//data/scripts/dock.prm

>  <Rbt.Receptor>
1YET_test.prm

>  <SCORE>
-41.9236

>  <SCORE.INTER>
-26.276

>  <SCORE.INTER.CONST>
1

>  <SCORE.INTER.POLAR>
-2.57579

>  <SCORE.INTER.REPUL>
0

>  <SCORE.INTER.ROT>
5

>  <SCORE.INTER.VDW>
-27.9183

>  <SCORE.INTER.norm>
-0.6569

>  <SCORE.INTRA>
-9.09045

>  <SCORE.INTRA.DIHEDRAL>
-6.52736

>  <SCORE.INTRA.DIHEDRAL.0>
15.3889

>  <SCORE.INTRA.POLAR>
0

>  <SCORE.INTRA.POLAR.0>
0

>  <SCORE.INTRA.REPUL>
0

>  <SCORE.INTRA.REPUL.0>
0

>  <SCORE.INTRA.VDW>
-5.82677

>  <SCORE.INTRA.VDW.0>
7.09596

>  <SCORE.INTRA.norm>
-0.227261

>  <SCORE.RESTR>
0.060751

>  <SCORE.RESTR.CAVITY>
0

>  <SCORE.RESTR.PHARMA>
0.060751

>  <SCORE.RESTR.PHARMA.con_1>
0.060751

>  <SCORE.RESTR.PHARMA.con_2>
0

>  <SCORE.RESTR.norm>
0.00151878

>  <SCORE.SYSTEM>
-6.61794

>  <SCORE.SYSTEM.CONST>
0

>  <SCORE.SYSTEM.DIHEDRAL>
2.99267

>  <SCORE.SYSTEM.POLAR>
-2.35269

>  <SCORE.SYSTEM.VDW>
-0.115114

>  <SCORE.SYSTEM.norm>
-0.165448

>  <SCORE.heavy>
40

>  <SCORE.norm>
-1.04809

$$$$
L_1YET
  rDOCK(R)          3D
libRbt.so/2013.1/901 2013/11/27
 44 45  0  0  0  0  0  0  0  0999 V2000
   38.2985   10.1422   20.2665 O   0  0  0  0  0  0
   33.4852   12.8526   23.9440 O   0  0  0  0  0  0
   31.3175   11.1371   23.9858 O   0  0  0  0  0  0
   29.9760   10.4515   25.7204 O   0  0  0  0  0  0
   32.8464    5.4187   28.0516 O   0  0  0  0  0  0
   35.3976    6.6806   28.6183 O   0  0  0  0  0  0
   34.4076    4.3489   23.8211 O   0  0  0  0  0  0
   33.4025    5.4059   21.5233 O   0  0  0  0  0  0
   38.1499    7.1949   22.9475 O   0  0  0  0  0  0
   37.1782    8.2310   20.7297 N   0  0  0  0  0  0
   29.1203   11.2209   23.7727 N   0  0  0  0  0  0
   37.7063    9.4903   21.0923 C   0  0  0  0  0  0
   37.5899    9.9329   22.5191 C   0  0  0  0  0  0
   36.3589   10.1183   23.0630 C   0  0  0  0  0  0
   36.0947   10.5470   24.4332 C   0  0  0  0  0  0
   34.9479   11.0989   24.8814 C   0  0  0  0  0  0
   33.7123   11.3959   24.1067 C   0  0  0  0  0  0
   32.4022   10.7898   24.7819 C   0  0  0  0  0  0
   32.4519    9.1638   24.9396 C   0  0  0  0  0  0
   32.3158    8.6036   26.1315 C   0  0  0  0  0  0
   32.2821    7.1461   26.4843 C   0  0  0  0  0  0
   33.1526    6.7890   27.6997 C   0  0  0  0  0  0
   34.6464    6.9550   27.4164 C   0  0  0  0  0  0
   35.1752    6.0010   26.3493 C   0  0  0  0  0  0
   36.6719    6.1555   25.9863 C   0  0  0  0  0  0
   37.0870    5.3269   24.7219 C   0  0  0  0  0  0
   36.3547    5.7606   23.4856 C   0  0  0  0  0  0
   35.1546    5.3354   23.0762 C   0  0  0  0  0  0
   34.5062    5.8327   21.8482 C   0  0  0  0  0  0
   35.1887    6.8402   21.0312 C   0  0  0  0  0  0
   36.3891    7.2927   21.3891 C   0  0  0  0  0  0
   37.0387    6.7742   22.6329 C   0  0  0  0  0  0
   38.8833   10.1705   23.2341 C   0  0  0  0  0  0
   32.6636   13.2394   22.7857 C   0  0  0  0  0  0
   30.1157   10.8926   24.6043 C   0  0  0  0  0  0
   32.6140    8.3705   23.6412 C   0  0  0  0  0  0
   30.8045    6.7985   26.7707 C   0  0  0  0  0  0
   35.2323    7.7061   29.6472 C   0  0  0  0  0  0
   37.0148    7.6096   25.8399 C   0  0  0  0  0  0
   34.2265    2.9808   23.4264 C   0  0  0  0  0  0
   31.9314    5.3811   28.5232 H   0  0  0  0  0  0
   37.4311    7.9463   19.7727 H   0  0  0  0  0  0
   29.3333   11.5914   22.8355 H   0  0  0  0  0  0
   28.1411   11.1032   24.0698 H   0  0  0  0  0  0
  1 12  2  0  0  0
  2 17  1  0  0  0
  2 34  1  0  0  0
  3 18  1  0  0  0
  3 35  1  0  0  0
  4 35  2  0  0  0
  5 22  1  0  0  0
  6 23  1  0  0  0
  6 38  1  0  0  0
  7 28  1  0  0  0
  7 40  1  0  0  0
  8 29  2  0  0  0
  9 32  2  0  0  0
 10 12  1  0  0  0
 10 31  1  0  0  0
 11 35  1  0  0  0
 12 13  1  0  0  0
 13 14  2  0  0  0
 13 33  1  0  0  0
 14 15  1  0  0  0
 15 16  2  0  0  0
 16 17  1  0  0  0
 17 18  1  0  0  0
 18 19  1  0  0  0
 19 20  2  0  0  0
 19 36  1  0  0  0
 20 21  1  0  0  0
 21 22  1  0  0  0
 21 37  1  0  0  0
 22 23  1  0  0  0
 23 24  1  0  0  0
 24 25  1  0  0  0
 25 26  1  0  0  0
 25 39  1  0  0  0
 26 27  1  0  0  0
 27 28  2  0  0  0
 27 32  1  0  0  0
 28 29  1  0  0  0
 29 30  1  0  0  0
 30 31  2  0  0  0
 31 32  1  0  0  0
  5 41  1  0  0  0
 10 42  1  0  0  0
 11 43  1  0  0  0
 11 44  1  0  0  0
M  END
>  <CHROM.0>
-49.98652794,-58.34523489,176.20417983,90.13826525,-0.54241483,63.33731596

>  <CHROM.1>
155.86181502,-168.11520018,1.36222301,-75.20946293,-70.03492694,-106.64753364
34.50630490,8.20994520,24.32308954,-0.10896937,0.61802909,-0.58087726

>  <Name>
L_1YET

>  <RI>
0

>  <Rbt.Current_Directory>
/home/daniel/Dropbox/WORK/rDock_2013.1_src_DAG/bin

>  <Rbt.Executable>
rbdock ($Id: //depot/dev/client3/rdock/2013.1/src/exe/rbdock.cxx#4 $)

>  <Rbt.Library>
libRbt.so (2013.1, Build901 2013/11/27)

>  <Rbt.Parameter_File>
/home/daniel/dev/rdock-code//data/scripts/dock.prm

>  <Rbt.Receptor>
1YET_test.prm

>  <SCORE>
-41.8171

>  <SCORE.INTER>
-25.6625

>  <SCORE.INTER.CONST>
1

>  <SCORE.INTER.POLAR>
-2.40363

>  <SCORE.INTER.REPUL>
0

>  <SCORE.INTER.ROT>
5

>  <SCORE.INTER.VDW>
-27.8902

>  <SCORE.INTER.norm>
-0.641563

>  <SCORE.INTRA>
-9.04497

>  <SCORE.INTRA.DIHEDRAL>
-6.12077

>  <SCORE.INTRA.DIHEDRAL.0>
15.3889

>  <SCORE.INTRA.POLAR>
0

>  <SCORE.INTRA.POLAR.0>
0

>  <SCORE.INTRA.REPUL>
0

>  <SCORE.INTRA.REPUL.0>
0

>  <SCORE.INTRA.VDW>
-5.98458

>  <SCORE.INTRA.VDW.0>
7.09596

>  <SCORE.INTRA.norm>
-0.226124

>  <SCORE.RESTR>
0.0596879

>  <SCORE.RESTR.CAVITY>
0

>  <SCORE.RESTR.PHARMA>
0.0596879

>  <SCORE.RESTR.PHARMA.con_1>
0.0596879

>  <SCORE.RESTR.PHARMA.con_2>
0

>  <SCORE.RESTR.norm>
0.0014922

>  <SCORE.SYSTEM>
-7.16928

>  <SCORE.SYSTEM.CONST>
0

>  <SCORE.SYSTEM.DIHEDRAL>
2.40999

>  <SCORE.SYSTEM.POLAR>
-1.9037

>  <SCORE.SYSTEM.VDW>
-1.90171

>  <SCORE.SYSTEM.norm>
-0.179232

>  <SCORE.heavy>
40

>  <SCORE.norm>
-1.04543

$$$$
L_1YET
  rDOCK(R)          3D
libRbt.so/2013.1/901 2013/11/27
 44 45  0  0  0  0  0  0  0  0999 V2000
   38.2913   10.1365   20.2620 O   0  0  0  0  0  0
   33.4837   12.8490   23.9454 O   0  0  0  0  0  0
   31.3129   11.1374   23.9845 O   0  0  0  0  0  0
   29.9713   10.5091   25.7406 O   0  0  0  0  0  0
   32.8323    5.4090   28.0399 O   0  0  0  0  0  0
   35.3859    6.6653   28.6082 O   0  0  0  0  0  0
   34.3908    4.3439   23.8071 O   0  0  0  0  0  0
   33.3871    5.4068   21.5114 O   0  0  0  0  0  0
   38.1380    7.1847   22.9378 O   0  0  0  0  0  0
   37.1677    8.2265   20.7220 N   0  0  0  0  0  0
   29.1158   11.2016   23.7642 N   0  0  0  0  0  0
   37.6981    9.4842   21.0868 C   0  0  0  0  0  0
   37.5828    9.9244   22.5143 C   0  0  0  0  0  0
   36.3523   10.1110   23.0589 C   0  0  0  0  0  0
   36.0892   10.5379   24.4299 C   0  0  0  0  0  0
   34.9435   11.0910   24.8793 C   0  0  0  0  0  0
   33.7082   11.3916   24.1053 C   0  0  0  0  0  0
   32.3972   10.7866   24.7798 C   0  0  0  0  0  0
   32.4439    9.1603   24.9346 C   0  0  0  0  0  0
   32.3071    8.5983   26.1255 C   0  0  0  0  0  0
   32.2708    7.1402   26.4757 C   0  0  0  0  0  0
   33.1409    6.7794   27.6903 C   0  0  0  0  0  0
   34.6350    6.9432   27.4070 C   0  0  0  0  0  0
   35.1618    5.9901   26.3381 C   0  0  0  0  0  0
   36.6588    6.1425   25.9750 C   0  0  0  0  0  0
   37.0721    5.3155   24.7091 C   0  0  0  0  0  0
   36.3403    5.7527   23.4737 C   0  0  0  0  0  0
   35.1394    5.3303   23.0639 C   0  0  0  0  0  0
   34.4916    5.8310   21.8368 C   0  0  0  0  0  0
   35.1758    6.8387   21.0215 C   0  0  0  0  0  0
   36.3770    7.2884   21.3800 C   0  0  0  0  0  0
   37.0260    6.7666   22.6227 C   0  0  0  0  0  0
   38.8768   10.1585   23.2295 C   0  0  0  0  0  0
   32.6962   13.2421   22.7656 C   0  0  0  0  0  0
   30.1111   10.9094   24.6093 C   0  0  0  0  0  0
   32.6044    8.3690   23.6347 C   0  0  0  0  0  0
   30.7926    6.7947   26.7618 C   0  0  0  0  0  0
   35.2959    7.7327   29.6033 C   0  0  0  0  0  0
   37.0042    7.5963   25.8312 C   0  0  0  0  0  0
   34.8171    2.9946   24.0481 C   0  0  0  0  0  0
   33.3579    5.1430   28.8848 H   0  0  0  0  0  0
   37.4199    7.9430   19.7645 H   0  0  0  0  0  0
   29.3288   11.5383   22.8144 H   0  0  0  0  0  0
   28.1366   11.0897   24.0635 H   0  0  0  0  0  0
  1 12  2  0  0  0
  2 17  1  0  0  0
  2 34  1  0  0  0
  3 18  1  0  0  0
  3 35  1  0  0  0
  4 35  2  0  0  0
  5 22  1  0  0  0
  6 23  1  0  0  0
  6 38  1  0  0  0
  7 28  1  0  0  0
  7 40  1  0  0  0
  8 29  2  0  0  0
  9 32  2  0  0  0
 10 12  1  0  0  0
 10 31  1  0  0  0
 11 35  1  0  0  0
 12 13  1  0  0  0
 13 14  2  0  0  0
 13 33  1  0  0  0
 14 15  1  0  0  0
 15 16  2  0  0  0
 16 17  1  0  0  0
 17 18  1  0  0  0
 18 19  1  0  0  0
 19 20  2  0  0  0
 19 36  1  0  0  0
 20 21  1  0  0  0
 21 22  1  0  0  0
 21 37  1  0  0  0
 22 23  1  0  0  0
 23 24  1  0  0  0
 24 25  1  0  0  0
 25 26  1  0  0  0
 25 39  1  0  0  0
 26 27  1  0  0  0
 27 28  2  0  0  0
 27 32  1  0  0  0
 28 29  1  0  0  0
 29 30  1  0  0  0
 30 31  2  0  0  0
 31 32  1  0  0  0
  5 41  1  0  0  0
 10 42  1  0  0  0
 11 43  1  0  0  0
 11 44  1  0  0  0
M  END
>  <CHROM.0>
64.14370552,63.95006087,175.72001849,93.27899337,-164.40642671,-67.63575566

>  <CHROM.1>
154.11820249,-167.35546224,3.22027146,-176.88454398,-73.97070337,-62.50782466
34.51833669,8.20641008,24.33270970,-0.14872057,0.61483069,-0.59920863

>  <Name>
L_1YET

>  <RI>
0

>  <Rbt.Current_Directory>
/home/daniel/Dropbox/WORK/rDock_2013.1_src_DAG/bin

>  <Rbt.Executable>
rbdock ($Id: //depot/dev/client3/rdock/2013.1/src/exe/rbdock.cxx#4 $)

>  <Rbt.Library>
libRbt.so (2013.1, Build901 2013/11/27)

>  <Rbt.Parameter_File>
/home/daniel/dev/rdock-code//data/scripts/dock.prm

>  <Rbt.Receptor>
1YET_test.prm

>  <SCORE>
-41.7773

>  <SCORE.INTER>
-25.4019

>  <SCORE.INTER.CONST>
1

>  <SCORE.INTER.POLAR>
-2.448

>  <SCORE.INTER.REPUL>
0

>  <SCORE.INTER.ROT>
5

>  <SCORE.INTER.VDW>
-27.4787

>  <SCORE.INTER.norm>
-0.635048

>  <SCORE.INTRA>
-10.3861

>  <SCORE.INTRA.DIHEDRAL>
-6.88836

>  <SCORE.INTRA.DIHEDRAL.0>
15.3889

>  <SCORE.INTRA.POLAR>
0

>  <SCORE.INTRA.POLAR.0>
0

>  <SCORE.INTRA.REPUL>
0

>  <SCORE.INTRA.REPUL.0>
0

>  <SCORE.INTRA.VDW>
-6.94188

>  <SCORE.INTRA.VDW.0>
7.09596

>  <SCORE.INTRA.norm>
-0.259652

>  <SCORE.RESTR>
0.0597822

>  <SCORE.RESTR.CAVITY>
0

>  <SCORE.RESTR.PHARMA>
0.0597822

>  <SCORE.RESTR.PHARMA.con_1>
0.0597822

>  <SCORE.RESTR.PHARMA.con_2>
0

>  <SCORE.RESTR.norm>
0.00149455

>  <SCORE.SYSTEM>
-6.04906

>  <SCORE.SYSTEM.CONST>
0

>  <SCORE.SYSTEM.DIHEDRAL>
2.95256

>  <SCORE.SYSTEM.POLAR>
-1.94461

>  <SCORE.SYSTEM.VDW>
-0.913668

>  <SCORE.SYSTEM.norm>
-0.151227

>  <SCORE.heavy>
40

>  <SCORE.norm>
-1.04443

$$$$
L_1YET
  rDOCK(R)          3D
libRbt.so/2013.1/901 2013/11/27
 44 45  0  0  0  0  0  0  0  0999 V2000
   38.0442   10.1234   20.5880 O   0  0  0  0  0  0
   33.2218   12.5355   24.4563 O   0  0  0  0  0  0
   31.1054   10.7566   24.4622 O   0  0  0  0  0  0
   29.8215   10.1659   26.2736 O   0  0  0  0  0  0
   32.8710    4.9217   28.2577 O   0  0  0  0  0  0
   35.3946    6.2336   28.8341 O   0  0  0  0  0  0
   34.3861    4.0752   23.9603 O   0  0  0  0  0  0
   33.3098    5.1967   21.7262 O   0  0  0  0  0  0
   38.0287    7.0641   23.1447 O   0  0  0  0  0  0
   36.9878    8.1624   20.9890 N   0  0  0  0  0  0
   28.9094   10.9773   24.3691 N   0  0  0  0  0  0
   37.4859    9.4206   21.3954 C   0  0  0  0  0  0
   37.3825    9.7998   22.8412 C   0  0  0  0  0  0
   36.1567    9.9261   23.4131 C   0  0  0  0  0  0
   35.9049   10.2895   24.8043 C   0  0  0  0  0  0
   34.7510   10.7883   25.2945 C   0  0  0  0  0  0
   33.4936   11.0806   24.5537 C   0  0  0  0  0  0
   32.2138   10.4085   25.2247 C   0  0  0  0  0  0
   32.3131    8.7796   25.3130 C   0  0  0  0  0  0
   32.2146    8.1666   26.4824 C   0  0  0  0  0  0
   32.2291    6.6953   26.7741 C   0  0  0  0  0  0
   33.1312    6.3139   27.9586 C   0  0  0  0  0  0
   34.6144    6.5355   27.6576 C   0  0  0  0  0  0
   35.1511    5.6426   26.5426 C   0  0  0  0  0  0
   36.6360    5.8561   26.1613 C   0  0  0  0  0  0
   37.0520    5.0935   24.8564 C   0  0  0  0  0  0
   36.2854    5.5564   23.6520 C   0  0  0  0  0  0
   35.0909    5.1133   23.2452 C   0  0  0  0  0  0
   34.4065    5.6419   22.0502 C   0  0  0  0  0  0
   35.0449    6.7022   21.2650 C   0  0  0  0  0  0
   36.2380    7.1746   21.6215 C   0  0  0  0  0  0
   36.9245    6.6243   22.8313 C   0  0  0  0  0  0
   38.6811   10.0456   23.5439 C   0  0  0  0  0  0
   34.2181   13.3164   23.7055 C   0  0  0  0  0  0
   29.9267   10.5914   25.1477 C   0  0  0  0  0  0
   32.4746    8.0461   23.9798 C   0  0  0  0  0  0
   30.7675    6.2927   27.0703 C   0  0  0  0  0  0
   35.2567    7.2363   29.8892 C   0  0  0  0  0  0
   36.9342    7.3246   26.0706 C   0  0  0  0  0  0
   34.1590    2.7451   23.4708 C   0  0  0  0  0  0
   33.4341    4.6335   29.0705 H   0  0  0  0  0  0
   37.2316    7.9253   20.0168 H   0  0  0  0  0  0
   29.0930   11.3286   23.4184 H   0  0  0  0  0  0
   27.9426   10.9230   24.7204 H   0  0  0  0  0  0
  1 12  2  0  0  0
  2 17  1  0  0  0
  2 34  1  0  0  0
  3 18  1  0  0  0
  3 35  1  0  0  0
  4 35  2  0  0  0
  5 22  1  0  0  0
  6 23  1  0  0  0
  6 38  1  0  0  0
  7 28  1  0  0  0
  7 40  1  0  0  0
  8 29  2  0  0  0
  9 32  2  0  0  0
 10 12  1  0  0  0
 10 31  1  0  0  0
 11 35  1  0  0  0
 12 13  1  0  0  0
 13 14  2  0  0  0
 13 33  1  0  0  0
 14 15  1  0  0  0
 15 16  2  0  0  0
 16 17  1  0  0  0
 17 18  1  0  0  0
 18 19  1  0  0  0
 19 20  2  0  0  0
 19 36  1  0  0  0
 20 21  1  0  0  0
 21 22  1  0  0  0
 21 37  1  0  0  0
 22 23  1  0  0  0
 23 24  1  0  0  0
 24 25  1  0  0  0
 25 26  1  0  0  0
 25 39  1  0  0  0
 26 27  1  0  0  0
 27 28  2  0  0  0
 27 32  1  0  0  0
 28 29  1  0  0  0
 29 30  1  0  0  0
 30 31  2  0  0  0
 31 32  1  0  0  0
  5 41  1  0  0  0
 10 42  1  0  0  0
 11 43  1  0  0  0
 11 44  1  0  0  0
M  END
>  <CHROM.0>
178.37545510,-60.24856594,60.60779641,93.43986850,10.67452009,-68.81753918

>  <CHROM.1>
63.15024895,-161.26763376,-1.63808569,-178.04331895,-72.16350151,-111.12397443
34.43425223,7.93862900,24.63763720,-0.03612023,0.63608376,-0.49400495

>  <Name>
L_1YET

>  <RI>
0

>  <Rbt.Current_Directory>
/home/daniel/Dropbox/WORK/rDock_2013.1_src_DAG/bin

>  <Rbt.Executable>
rbdock ($Id: //depot/dev/client3/rdock/2013.1/src/exe/rbdock.cxx#4 $)

>  <Rbt.Library>
libRbt.so (2013.1, Build901 2013/11/27)

>  <Rbt.Parameter_File>
/home/daniel/dev/rdock-code//data/scripts/dock.prm

>  <Rbt.Receptor>
1YET_test.prm

>  <SCORE>
-41.7031

>  <SCORE.INTER>
-22.6387

>  <SCORE.INTER.CONST>
1

>  <SCORE.INTER.POLAR>
-2.2823

>  <SCORE.INTER.REPUL>
0

>  <SCORE.INTER.ROT>
5

>  <SCORE.INTER.VDW>
-25.2789

>  <SCORE.INTER.norm>
-0.565968

>  <SCORE.INTRA>
-11.8087

>  <SCORE.INTRA.DIHEDRAL>
-8.69126

>  <SCORE.INTRA.DIHEDRAL.0>
15.3889

>  <SCORE.INTRA.POLAR>
0

>  <SCORE.INTRA.POLAR.0>
0

>  <SCORE.INTRA.REPUL>
0

>  <SCORE.INTRA.REPUL.0>
0

>  <SCORE.INTRA.VDW>
-7.46309

>  <SCORE.INTRA.VDW.0>
7.09596

>  <SCORE.INTRA.norm>
-0.295218

>  <SCORE.RESTR>
0.00250346

>  <SCORE.RESTR.CAVITY>
0

>  <SCORE.RESTR.PHARMA>
0.00250346

>  <SCORE.RESTR.PHARMA.con_1>
0.00250346

>  <SCORE.RESTR.PHARMA.con_2>
0

>  <SCORE.RESTR.norm>
6.25864e-05

>  <SCORE.SYSTEM>
-7.25815

>  <SCORE.SYSTEM.CONST>
0

>  <SCORE.SYSTEM.DIHEDRAL>
2.68645

>  <SCORE.SYSTEM.POLAR>
-2.35674

>  <SCORE.SYSTEM.REPUL>
0.00606215

>  <SCORE.SYSTEM.VDW>
-0.618786

>  <SCORE.SYSTEM.norm>
-0.181454

>  <SCORE.heavy>
40

>  <SCORE.norm>
-1.04258

$$$$
L_1YET
  rDOCK(R)          3D
libRbt.so/2013.1/901 2013/11/27
 44 45  0  0  0  0  0  0  0  0999 V2000
   38.0285   10.1196   20.5484 O   0  0  0  0  0  0
   33.2317   12.5246   24.4529 O   0  0  0  0  0  0
   31.1082   10.7541   24.4553 O   0  0  0  0  0  0
   29.8296   10.1560   26.2679 O   0  0  0  0  0  0
   32.8655    4.8865   28.2036 O   0  0  0  0  0  0
   35.3968    6.1843   28.7787 O   0  0  0  0  0  0
   34.3597    4.0632   23.8945 O   0  0  0  0  0  0
   33.2789    5.2042   21.6724 O   0  0  0  0  0  0
   38.0110    7.0430   23.0843 O   0  0  0  0  0  0
   36.9658    8.1602   20.9404 N   0  0  0  0  0  0
   28.9101   10.9534   24.3610 N   0  0  0  0  0  0
   37.4707    9.4135   21.3533 C   0  0  0  0  0  0
   37.3747    9.7833   22.8021 C   0  0  0  0  0  0
   36.1517    9.9105   23.3798 C   0  0  0  0  0  0
   35.9071   10.2655   24.7745 C   0  0  0  0  0  0
   34.7572   10.7655   25.2728 C   0  0  0  0  0  0
   33.4980   11.0679   24.5392 C   0  0  0  0  0  0
   32.2182   10.3965   25.2108 C   0  0  0  0  0  0
   32.3113    8.7666   25.2876 C   0  0  0  0  0  0
   32.2151    8.1460   26.4532 C   0  0  0  0  0  0
   32.2249    6.6727   26.7348 C   0  0  0  0  0  0
   33.1302    6.2796   27.9130 C   0  0  0  0  0  0
   34.6130    6.4973   27.6075 C   0  0  0  0  0  0
   35.1415    5.6099   26.4842 C   0  0  0  0  0  0
   36.6258    5.8201   26.0983 C   0  0  0  0  0  0
   37.0333    5.0647   24.7865 C   0  0  0  0  0  0
   36.2637    5.5389   23.5884 C   0  0  0  0  0  0
   35.0658    5.1034   23.1836 C   0  0  0  0  0  0
   34.3787    5.6428   21.9950 C   0  0  0  0  0  0
   35.0182    6.7059   21.2144 C   0  0  0  0  0  0
   36.2147    7.1711   21.5692 C   0  0  0  0  0  0
   36.9038    6.6098   22.7725 C   0  0  0  0  0  0
   38.6772   10.0190   23.5011 C   0  0  0  0  0  0
   34.2109   13.3018   23.6761 C   0  0  0  0  0  0
   29.9309   10.5794   25.1409 C   0  0  0  0  0  0
   32.4644    8.0416   23.9488 C   0  0  0  0  0  0
   30.7628    6.2739   27.0342 C   0  0  0  0  0  0
   35.2168    7.1454   29.8655 C   0  0  0  0  0  0
   36.9295    7.2879   26.0163 C   0  0  0  0  0  0
   34.8241    2.7149   24.0581 C   0  0  0  0  0  0
   33.4092    4.5982   29.0296 H   0  0  0  0  0  0
   37.2047    7.9288   19.9656 H   0  0  0  0  0  0
   29.0906   11.3039   23.4094 H   0  0  0  0  0  0
   27.9438   10.8907   24.7122 H   0  0  0  0  0  0
  1 12  2  0  0  0
  2 17  1  0  0  0
  2 34  1  0  0  0
  3 18  1  0  0  0
  3 35  1  0  0  0
  4 35  2  0  0  0
  5 22  1  0  0  0
  6 23  1  0  0  0
  6 38  1  0  0  0
  7 28  1  0  0  0
  7 40  1  0  0  0
  8 29  2  0  0  0
  9 32  2  0  0  0
 10 12  1  0  0  0
 10 31  1  0  0  0
 11 35  1  0  0  0
 12 13  1  0  0  0
 13 14  2  0  0  0
 13 33  1  0  0  0
 14 15  1  0  0  0
 15 16  2  0  0  0
 16 17  1  0  0  0
 17 18  1  0  0  0
 18 19  1  0  0  0
 19 20  2  0  0  0
 19 36  1  0  0  0
 20 21  1  0  0  0
 21 22  1  0  0  0
 21 37  1  0  0  0
 22 23  1  0  0  0
 23 24  1  0  0  0
 24 25  1  0  0  0
 25 26  1  0  0  0
 25 39  1  0  0  0
 26 27  1  0  0  0
 27 28  2  0  0  0
 27 32  1  0  0  0
 28 29  1  0  0  0
 29 30  1  0  0  0
 30 31  2  0  0  0
 31 32  1  0  0  0
  5 41  1  0  0  0
 10 42  1  0  0  0
 11 43  1  0  0  0
 11 44  1  0  0  0
M  END
>  <CHROM.0>
-49.58489312,-57.77981351,-63.18030336,-142.94034571,2.03356826,-67.15817161

>  <CHROM.1>
64.55071948,-161.72988373,-0.57313580,-176.34542362,-69.35472423,-62.77099087
34.44307241,7.91895044,24.61513658,-0.05451801,0.63525476,-0.51220756

>  <Name>
L_1YET

>  <RI>
0

>  <Rbt.Current_Directory>
/home/daniel/Dropbox/WORK/rDock_2013.1_src_DAG/bin

>  <Rbt.Executable>
rbdock ($Id: //depot/dev/client3/rdock/2013.1/src/exe/rbdock.cxx#4 $)

>  <Rbt.Library>
libRbt.so (2013.1, Build901 2013/11/27)

>  <Rbt.Parameter_File>
/home/daniel/dev/rdock-code//data/scripts/dock.prm

>  <Rbt.Receptor>
1YET_test.prm

>  <SCORE>
-41.5655

>  <SCORE.INTER>
-23.1175

>  <SCORE.INTER.CONST>
1

>  <SCORE.INTER.POLAR>
-2.53684

>  <SCORE.INTER.REPUL>
0

>  <SCORE.INTER.ROT>
5

>  <SCORE.INTER.VDW>
-24.8922

>  <SCORE.INTER.norm>
-0.577938

>  <SCORE.INTRA>
-11.9243

>  <SCORE.INTRA.DIHEDRAL>
-9.34222

>  <SCORE.INTRA.DIHEDRAL.0>
15.3889

>  <SCORE.INTRA.POLAR>
0

>  <SCORE.INTRA.POLAR.0>
0

>  <SCORE.INTRA.REPUL>
0

>  <SCORE.INTRA.REPUL.0>
0

>  <SCORE.INTRA.VDW>
-7.25318

>  <SCORE.INTRA.VDW.0>
7.09596

>  <SCORE.INTRA.norm>
-0.298107

>  <SCORE.RESTR>
0.00168852

>  <SCORE.RESTR.CAVITY>
0

>  <SCORE.RESTR.PHARMA>
0.00168852

>  <SCORE.RESTR.PHARMA.con_1>
0.00168852

>  <SCORE.RESTR.PHARMA.con_2>
0

>  <SCORE.RESTR.norm>
4.2213e-05

>  <SCORE.SYSTEM>
-6.52537

>  <SCORE.SYSTEM.CONST>
0

>  <SCORE.SYSTEM.DIHEDRAL>
3.28623

>  <SCORE.SYSTEM.POLAR>
-2.35352

>  <SCORE.SYSTEM.VDW>
-0.16652

>  <SCORE.SYSTEM.norm>
-0.163134

>  <SCORE.heavy>
40

>  <SCORE.norm>
-1.03914

$$$$
L_1YET
  rDOCK(R)          3D
libRbt.so/2013.1/901 2013/11/27
 44 45  0  0  0  0  0  0  0  0999 V2000
   38.1683    9.4458   19.7475 O   0  0  0  0  0  0
   33.5350   12.5621   23.3336 O   0  0  0  0  0  0
   31.3304   10.9115   23.5752 O   0  0  0  0  0  0
   30.0410   10.5724   25.4463 O   0  0  0  0  0  0
   32.8505    5.4966   28.0402 O   0  0  0  0  0  0
   35.4466    6.7337   28.4300 O   0  0  0  0  0  0
   34.2552    4.0547   23.8657 O   0  0  0  0  0  0
   33.2045    4.9513   21.5206 O   0  0  0  0  0  0
   38.0340    6.7254   22.6591 O   0  0  0  0  0  0
   37.0186    7.6068   20.3945 N   0  0  0  0  0  0
   29.1376   11.1513   23.4548 N   0  0  0  0  0  0
   37.5868    8.8769   20.6396 C   0  0  0  0  0  0
   37.5248    9.4342   22.0291 C   0  0  0  0  0  0
   36.3159    9.6937   22.5918 C   0  0  0  0  0  0
   36.1041   10.2365   23.9303 C   0  0  0  0  0  0
   34.9848   10.8515   24.3657 C   0  0  0  0  0  0
   33.7331   11.1175   23.6057 C   0  0  0  0  0  0
   32.4307   10.6007   24.3649 C   0  0  0  0  0  0
   32.4474    8.9917   24.6509 C   0  0  0  0  0  0
   32.3352    8.5316   25.8872 C   0  0  0  0  0  0
   32.2784    7.1080   26.3565 C   0  0  0  0  0  0
   33.1774    6.8263   27.5709 C   0  0  0  0  0  0
   34.6653    6.9310   27.2323 C   0  0  0  0  0  0
   35.1386    5.8820   26.2302 C   0  0  0  0  0  0
   36.6266    5.9687   25.8128 C   0  0  0  0  0  0
   36.9831    5.0321   24.6074 C   0  0  0  0  0  0
   36.2233    5.3849   23.3621 C   0  0  0  0  0  0
   35.0016    4.9594   23.0229 C   0  0  0  0  0  0
   34.3274    5.3741   21.7782 C   0  0  0  0  0  0
   35.0076    6.2957   20.8638 C   0  0  0  0  0  0
   36.2287    6.7443   21.1495 C   0  0  0  0  0  0
   36.9041    6.3097   22.4115 C   0  0  0  0  0  0
   38.8448    9.6946   22.6851 C   0  0  0  0  0  0
   33.5929   13.4417   24.5122 C   0  0  0  0  0  0
   30.1504   10.8514   24.2759 C   0  0  0  0  0  0
   32.5509    8.0939   23.4160 C   0  0  0  0  0  0
   30.8027    6.8222   26.7124 C   0  0  0  0  0  0
   35.4103    7.8803   29.3364 C   0  0  0  0  0  0
   36.9985    7.3974   25.5406 C   0  0  0  0  0  0
   34.5356    2.6561   24.0257 C   0  0  0  0  0  0
   33.4370    5.2656   28.8548 H   0  0  0  0  0  0
   37.2353    7.2406   19.4564 H   0  0  0  0  0  0
   29.3248   11.3776   22.4675 H   0  0  0  0  0  0
   28.1708   11.1560   23.8099 H   0  0  0  0  0  0
  1 12  2  0  0  0
  2 17  1  0  0  0
  2 34  1  0  0  0
  3 18  1  0  0  0
  3 35  1  0  0  0
  4 35  2  0  0  0
  5 22  1  0  0  0
  6 23  1  0  0  0
  6 38  1  0  0  0
  7 28  1  0  0  0
  7 40  1  0  0  0
  8 29  2  0  0  0
  9 32  2  0  0  0
 10 12  1  0  0  0
 10 31  1  0  0  0
 11 35  1  0  0  0
 12 13  1  0  0  0
 13 14  2  0  0  0
 13 33  1  0  0  0
 14 15  1  0  0  0
 15 16  2  0  0  0
 16 17  1  0  0  0
 17 18  1  0  0  0
 18 19  1  0  0  0
 19 20  2  0  0  0
 19 36  1  0  0  0
 20 21  1  0  0  0
 21 22  1  0  0  0
 21 37  1  0  0  0
 22 23  1  0  0  0
 23 24  1  0  0  0
 24 25  1  0  0  0
 25 26  1  0  0  0
 25 39  1  0  0  0
 26 27  1  0  0  0
 27 28  2  0  0  0
 27 32  1  0  0  0
 28 29  1  0  0  0
 29 30  1  0  0  0
 30 31  2  0  0  0
 31 32  1  0  0  0
  5 41  1  0  0  0
 10 42  1  0  0  0
 11 43  1  0  0  0
 11 44  1  0  0  0
M  END
>  <CHROM.0>
-50.79802382,-58.27227417,49.19007055,144.50641206,175.24494703,-68.84955016

>  <CHROM.1>
-53.34674493,-163.23459940,0.43086188,179.71966178,-73.98521547,-73.55944046
34.50232470,7.96554595,24.13069405,-0.20507391,0.69229254,-0.58488873

>  <Name>
L_1YET

>  <RI>
0

>  <Rbt.Current_Directory>
/home/daniel/Dropbox/WORK/rDock_2013.1_src_DAG/bin

>  <Rbt.Executable>
rbdock ($Id: //depot/dev/client3/rdock/2013.1/src/exe/rbdock.cxx#4 $)

>  <Rbt.Library>
libRbt.so (2013.1, Build901 2013/11/27)

>  <Rbt.Parameter_File>
/home/daniel/dev/rdock-code//data/scripts/dock.prm

>  <Rbt.Receptor>
1YET_test.prm

>  <SCORE>
-41.4843

>  <SCORE.INTER>
-24.3065

>  <SCORE.INTER.CONST>
1

>  <SCORE.INTER.POLAR>
-2.25731

>  <SCORE.INTER.REPUL>
0.0332994

>  <SCORE.INTER.ROT>
5

>  <SCORE.INTER.VDW>
-27.1981

>  <SCORE.INTER.norm>
-0.607663

>  <SCORE.INTRA>
-10.6581

>  <SCORE.INTRA.DIHEDRAL>
-8.40284

>  <SCORE.INTRA.DIHEDRAL.0>
15.3889

>  <SCORE.INTRA.POLAR>
0

>  <SCORE.INTRA.POLAR.0>
0

>  <SCORE.INTRA.REPUL>
0

>  <SCORE.INTRA.REPUL.0>
0

>  <SCORE.INTRA.VDW>
-6.45673

>  <SCORE.INTRA.VDW.0>
7.09596

>  <SCORE.INTRA.norm>
-0.266454

>  <SCORE.RESTR>
0.0271185

>  <SCORE.RESTR.CAVITY>
0

>  <SCORE.RESTR.PHARMA>
0.0271185

>  <SCORE.RESTR.PHARMA.con_1>
0.0271185

>  <SCORE.RESTR.PHARMA.con_2>
0

>  <SCORE.RESTR.norm>
0.000677963

>  <SCORE.SYSTEM>
-6.54678

>  <SCORE.SYSTEM.CONST>
0

>  <SCORE.SYSTEM.DIHEDRAL>
3.43581

>  <SCORE.SYSTEM.POLAR>
-2.35664

>  <SCORE.SYSTEM.REPUL>
0.0111923

>  <SCORE.SYSTEM.VDW>
-0.308074

>  <SCORE.SYSTEM.norm>
-0.163669

>  <SCORE.heavy>
40

>  <SCORE.norm>
-1.03711

$$$$
L_1YET
  rDOCK(R)          3D
libRbt.so/2013.1/901 2013/11/27
 44 45  0  0  0  0  0  0  0  0999 V2000
   38.3024    9.9035   19.9075 O   0  0  0  0  0  0
   33.4753   12.7319   23.4764 O   0  0  0  0  0  0
   31.3326   10.9909   23.6217 O   0  0  0  0  0  0
   30.0187   10.5563   25.4557 O   0  0  0  0  0  0
   32.9694    5.5104   27.9637 O   0  0  0  0  0  0
   35.5061    6.8350   28.4464 O   0  0  0  0  0  0
   34.5179    4.2467   23.7823 O   0  0  0  0  0  0
   33.4827    5.1704   21.4407 O   0  0  0  0  0  0
   38.2134    7.0958   22.7368 O   0  0  0  0  0  0
   37.2125    8.0032   20.4760 N   0  0  0  0  0  0
   29.1362   11.1674   23.4644 N   0  0  0  0  0  0
   37.7250    9.2866   20.7698 C   0  0  0  0  0  0
   37.6117    9.8002   22.1729 C   0  0  0  0  0  0
   36.3818    9.9961   22.7156 C   0  0  0  0  0  0
   36.1205   10.4909   24.0639 C   0  0  0  0  0  0
   34.9690   11.0491   24.4916 C   0  0  0  0  0  0
   33.7242   11.2887   23.7117 C   0  0  0  0  0  0
   32.4273   10.6999   24.4266 C   0  0  0  0  0  0
   32.5012    9.0850   24.6670 C   0  0  0  0  0  0
   32.3809    8.5849   25.8870 C   0  0  0  0  0  0
   32.3702    7.1470   26.3142 C   0  0  0  0  0  0
   33.2537    6.8649   27.5399 C   0  0  0  0  0  0
   34.7431    7.0369   27.2376 C   0  0  0  0  0  0
   35.2784    6.0368   26.2169 C   0  0  0  0  0  0
   36.7704    6.1932   25.8355 C   0  0  0  0  0  0
   37.1889    5.3067   24.6122 C   0  0  0  0  0  0
   36.4424    5.6663   23.3608 C   0  0  0  0  0  0
   35.2458    5.2039   22.9825 C   0  0  0  0  0  0
   34.5823    5.6285   21.7353 C   0  0  0  0  0  0
   35.2451    6.6022   20.8628 C   0  0  0  0  0  0
   36.4412    7.0891   21.1884 C   0  0  0  0  0  0
   37.1063    6.6442   22.4523 C   0  0  0  0  0  0
   38.9062   10.0921   22.8653 C   0  0  0  0  0  0
   33.4370   13.5724   24.6840 C   0  0  0  0  0  0
   30.1419   10.8737   24.2965 C   0  0  0  0  0  0
   32.6660    8.2285   23.4098 C   0  0  0  0  0  0
   30.8997    6.7941   26.6288 C   0  0  0  0  0  0
   35.3772    7.9363   29.3992 C   0  0  0  0  0  0
   37.0915    7.6426   25.6124 C   0  0  0  0  0  0
   34.9519    2.9078   24.0639 C   0  0  0  0  0  0
   32.0340    5.4738   28.3935 H   0  0  0  0  0  0
   37.4632    7.6733   19.5330 H   0  0  0  0  0  0
   29.3351   11.4289   22.4882 H   0  0  0  0  0  0
   28.1630   11.1318   23.8000 H   0  0  0  0  0  0
  1 12  2  0  0  0
  2 17  1  0  0  0
  2 34  1  0  0  0
  3 18  1  0  0  0
  3 35  1  0  0  0
  4 35  2  0  0  0
  5 22  1  0  0  0
  6 23  1  0  0  0
  6 38  1  0  0  0
  7 28  1  0  0  0
  7 40  1  0  0  0
  8 29  2  0  0  0
  9 32  2  0  0  0
 10 12  1  0  0  0
 10 31  1  0  0  0
 11 35  1  0  0  0
 12 13  1  0  0  0
 13 14  2  0  0  0
 13 33  1  0  0  0
 14 15  1  0  0  0
 15 16  2  0  0  0
 16 17  1  0  0  0
 17 18  1  0  0  0
 18 19  1  0  0  0
 19 20  2  0  0  0
 19 36  1  0  0  0
 20 21  1  0  0  0
 21 22  1  0  0  0
 21 37  1  0  0  0
 22 23  1  0  0  0
 23 24  1  0  0  0
 24 25  1  0  0  0
 25 26  1  0  0  0
 25 39  1  0  0  0
 26 27  1  0  0  0
 27 28  2  0  0  0
 27 32  1  0  0  0
 28 29  1  0  0  0
 29 30  1  0  0  0
 30 31  2  0  0  0
 31 32  1  0  0  0
  5 41  1  0  0  0
 10 42  1  0  0  0
 11 43  1  0  0  0
 11 44  1  0  0  0
M  END
>  <CHROM.0>
-50.44773470,-57.62131306,-67.41309121,-26.16939011,-177.53755628,64.46143024

>  <CHROM.1>
-54.94849358,-162.80877876,-0.02647804,-71.88757151,-72.45627975,-64.13772703
34.60373567,8.15692644,24.16809236,-0.17279001,0.65062958,-0.57712232

>  <Name>
L_1YET

>  <RI>
0

>  <Rbt.Current_Directory>
/home/daniel/Dropbox/WORK/rDock_2013.1_src_DAG/bin

>  <Rbt.Executable>
rbdock ($Id: //depot/dev/client3/rdock/2013.1/src/exe/rbdock.cxx#4 $)

>  <Rbt.Library>
libRbt.so (2013.1, Build901 2013/11/27)

>  <Rbt.Parameter_File>
/home/daniel/dev/rdock-code//data/scripts/dock.prm

>  <Rbt.Receptor>
1YET_test.prm

>  <SCORE>
-41.2485

>  <SCORE.INTER>
-25.348

>  <SCORE.INTER.CONST>
1

>  <SCORE.INTER.POLAR>
-2.37656

>  <SCORE.INTER.REPUL>
0

>  <SCORE.INTER.ROT>
5

>  <SCORE.INTER.VDW>
-27.6677

>  <SCORE.INTER.norm>
-0.633701

>  <SCORE.INTRA>
-9.56505

>  <SCORE.INTRA.DIHEDRAL>
-8.4734

>  <SCORE.INTRA.DIHEDRAL.0>
15.3889

>  <SCORE.INTRA.POLAR>
0

>  <SCORE.INTRA.POLAR.0>
0

>  <SCORE.INTRA.REPUL>
0

>  <SCORE.INTRA.REPUL.0>
0

>  <SCORE.INTRA.VDW>
-5.32835

>  <SCORE.INTRA.VDW.0>
7.09596

>  <SCORE.INTRA.norm>
-0.239126

>  <SCORE.RESTR>
0.027926

>  <SCORE.RESTR.CAVITY>
0

>  <SCORE.RESTR.PHARMA>
0.027926

>  <SCORE.RESTR.PHARMA.con_1>
0.027926

>  <SCORE.RESTR.PHARMA.con_2>
0

>  <SCORE.RESTR.norm>
0.000698151

>  <SCORE.SYSTEM>
-6.36335

>  <SCORE.SYSTEM.CONST>
0

>  <SCORE.SYSTEM.DIHEDRAL>
2.8769

>  <SCORE.SYSTEM.POLAR>
-1.78356

>  <SCORE.SYSTEM.REPUL>
0.00545725

>  <SCORE.SYSTEM.VDW>
-1.76499

>  <SCORE.SYSTEM.norm>
-0.159084

>  <SCORE.heavy>
40

>  <SCORE.norm>
-1.03121

$$$$
L_1YET
  rDOCK(R)          3D
libRbt.so/2013.1/901 2013/11/27
 44 45  0  0  0  0  0  0  0  0999 V2000
   38.2888    9.8317   19.9129 O   0  0  0  0  0  0
   33.5355   12.7446   23.5129 O   0  0  0  0  0  0
   31.3677   11.0371   23.6814 O   0  0  0  0  0  0
   30.1386   11.1929   25.6163 O   0  0  0  0  0  0
   32.9565    5.5453   28.0269 O   0  0  0  0  0  0
   35.5171    6.8322   28.4844 O   0  0  0  0  0  0
   34.4505    4.2454   23.8368 O   0  0  0  0  0  0
   33.4101    5.1778   21.5010 O   0  0  0  0  0  0
   38.1805    7.0343   22.7517 O   0  0  0  0  0  0
   37.1747    7.9501   20.4965 N   0  0  0  0  0  0
   29.1707   11.2400   23.5722 N   0  0  0  0  0  0
   37.7092    9.2264   20.7820 C   0  0  0  0  0  0
   37.6155    9.7458   22.1843 C   0  0  0  0  0  0
   36.3934    9.9623   22.7366 C   0  0  0  0  0  0
   36.1510   10.4651   24.0854 C   0  0  0  0  0  0
   35.0117   11.0422   24.5209 C   0  0  0  0  0  0
   33.7642   11.2985   23.7506 C   0  0  0  0  0  0
   32.4645   10.7318   24.4782 C   0  0  0  0  0  0
   32.5156    9.1167   24.7230 C   0  0  0  0  0  0
   32.3979    8.6222   25.9455 C   0  0  0  0  0  0
   32.3688    7.1860   26.3773 C   0  0  0  0  0  0
   33.2580    6.8940   27.5965 C   0  0  0  0  0  0
   34.7473    7.0422   27.2813 C   0  0  0  0  0  0
   35.2587    6.0309   26.2594 C   0  0  0  0  0  0
   36.7497    6.1633   25.8651 C   0  0  0  0  0  0
   37.1443    5.2668   24.6412 C   0  0  0  0  0  0
   36.3930    5.6340   23.3948 C   0  0  0  0  0  0
   35.1864    5.1889   23.0279 C   0  0  0  0  0  0
   34.5191    5.6199   21.7850 C   0  0  0  0  0  0
   35.1893    6.5806   20.9040 C   0  0  0  0  0  0
   36.3955    7.0501   21.2181 C   0  0  0  0  0  0
   37.0642    6.5988   22.4778 C   0  0  0  0  0  0
   38.9201   10.0200   22.8651 C   0  0  0  0  0  0
   33.5255   13.5900   24.7176 C   0  0  0  0  0  0
   30.2102   11.1607   24.4107 C   0  0  0  0  0  0
   32.6569    8.2540   23.4671 C   0  0  0  0  0  0
   30.8956    6.8566   26.7052 C   0  0  0  0  0  0
   35.3830    7.9209   29.4510 C   0  0  0  0  0  0
   37.0911    7.6069   25.6348 C   0  0  0  0  0  0
   34.3135    2.8454   23.5513 C   0  0  0  0  0  0
   33.5130    5.3189   28.8636 H   0  0  0  0  0  0
   37.4124    7.6136   19.5525 H   0  0  0  0  0  0
   29.3259   11.2040   22.5546 H   0  0  0  0  0  0
   28.2151   11.3370   23.9443 H   0  0  0  0  0  0
  1 12  2  0  0  0
  2 17  1  0  0  0
  2 34  1  0  0  0
  3 18  1  0  0  0
  3 35  1  0  0  0
  4 35  2  0  0  0
  5 22  1  0  0  0
  6 23  1  0  0  0
  6 38  1  0  0  0
  7 28  1  0  0  0
  7 40  1  0  0  0
  8 29  2  0  0  0
  9 32  2  0  0  0
 10 12  1  0  0  0
 10 31  1  0  0  0
 11 35  1  0  0  0
 12 13  1  0  0  0
 13 14  2  0  0  0
 13 33  1  0  0  0
 14 15  1  0  0  0
 15 16  2  0  0  0
 16 17  1  0  0  0
 17 18  1  0  0  0
 18 19  1  0  0  0
 19 20  2  0  0  0
 19 36  1  0  0  0
 20 21  1  0  0  0
 21 22  1  0  0  0
 21 37  1  0  0  0
 22 23  1  0  0  0
 23 24  1  0  0  0
 24 25  1  0  0  0
 25 26  1  0  0  0
 25 39  1  0  0  0
 26 27  1  0  0  0
 27 28  2  0  0  0
 27 32  1  0  0  0
 28 29  1  0  0  0
 29 30  1  0  0  0
 30 31  2  0  0  0
 31 32  1  0  0  0
  5 41  1  0  0  0
 10 42  1  0  0  0
 11 43  1  0  0  0
 11 44  1  0  0  0
M  END
>  <CHROM.0>
63.61376499,-178.45189817,51.85035055,103.72019836,-175.77007142,173.39132465

>  <CHROM.1>
-54.71892177,-152.56916994,9.79524799,-178.27815167,-70.82261104,-103.65098017
34.58936924,8.17301471,24.19979990,-0.22792297,0.68399004,-0.55071329

>  <Name>
L_1YET

>  <RI>
0

>  <Rbt.Current_Directory>
/home/daniel/Dropbox/WORK/rDock_2013.1_src_DAG/bin

>  <Rbt.Executable>
rbdock ($Id: //depot/dev/client3/rdock/2013.1/src/exe/rbdock.cxx#4 $)

>  <Rbt.Library>
libRbt.so (2013.1, Build901 2013/11/27)

>  <Rbt.Parameter_File>
/home/daniel/dev/rdock-code//data/scripts/dock.prm

>  <Rbt.Receptor>
1YET_test.prm

>  <SCORE>
-41.1539

>  <SCORE.INTER>
-28.1046

>  <SCORE.INTER.CONST>
1

>  <SCORE.INTER.POLAR>
-3.21919

>  <SCORE.INTER.REPUL>
0.00536413

>  <SCORE.INTER.ROT>
5

>  <SCORE.INTER.VDW>
-27.5862

>  <SCORE.INTER.norm>
-0.702615

>  <SCORE.INTRA>
-9.59511

>  <SCORE.INTRA.DIHEDRAL>
-6.23655

>  <SCORE.INTRA.DIHEDRAL.0>
15.3889

>  <SCORE.INTRA.POLAR>
0

>  <SCORE.INTRA.POLAR.0>
0

>  <SCORE.INTRA.REPUL>
0

>  <SCORE.INTRA.REPUL.0>
0

>  <SCORE.INTRA.VDW>
-6.47683

>  <SCORE.INTRA.VDW.0>
7.09596

>  <SCORE.INTRA.norm>
-0.239878

>  <SCORE.RESTR>
0.0423042

>  <SCORE.RESTR.CAVITY>
0

>  <SCORE.RESTR.PHARMA>
0.0423042

>  <SCORE.RESTR.PHARMA.con_1>
0.0423042

>  <SCORE.RESTR.PHARMA.con_2>
0

>  <SCORE.RESTR.norm>
0.00105761

>  <SCORE.SYSTEM>
-3.49656

>  <SCORE.SYSTEM.CONST>
0

>  <SCORE.SYSTEM.DIHEDRAL>
3.47011

>  <SCORE.SYSTEM.POLAR>
-1.04979

>  <SCORE.SYSTEM.VDW>
-1.66232

>  <SCORE.SYSTEM.norm>
-0.0874139

>  <SCORE.heavy>
40

>  <SCORE.norm>
-1.02885

$$$$
L_1YET
  rDOCK(R)          3D
libRbt.so/2013.1/901 2013/11/27
 44 45  0  0  0  0  0  0  0  0999 V2000
   38.3195   10.2846   20.2722 O   0  0  0  0  0  0
   33.4206   12.8580   23.9351 O   0  0  0  0  0  0
   31.2988   11.0858   23.9634 O   0  0  0  0  0  0
   29.9691   10.4487   25.7254 O   0  0  0  0  0  0
   32.9608    5.3999   28.0226 O   0  0  0  0  0  0
   35.4754    6.7273   28.6033 O   0  0  0  0  0  0
   34.5679    4.3820   23.7965 O   0  0  0  0  0  0
   33.5450    5.4176   21.4967 O   0  0  0  0  0  0
   38.2374    7.3279   22.9456 O   0  0  0  0  0  0
   37.2481    8.3434   20.7261 N   0  0  0  0  0  0
   29.1003   11.1753   23.7671 N   0  0  0  0  0  0
   37.7412    9.6152   21.0939 C   0  0  0  0  0  0
   37.6071   10.0511   22.5211 C   0  0  0  0  0  0
   36.3693   10.2026   23.0602 C   0  0  0  0  0  0
   36.0880   10.6210   24.4302 C   0  0  0  0  0  0
   34.9252   11.1413   24.8747 C   0  0  0  0  0  0
   33.6854   11.4074   24.0953 C   0  0  0  0  0  0
   32.3889   10.7652   24.7634 C   0  0  0  0  0  0
   32.4809    9.1408   24.9176 C   0  0  0  0  0  0
   32.3546    8.5743   26.1076 C   0  0  0  0  0  0
   32.3578    7.1155   26.4569 C   0  0  0  0  0  0
   33.2322    6.7786   27.6752 C   0  0  0  0  0  0
   34.7223    6.9847   27.3988 C   0  0  0  0  0  0
   35.2807    6.0476   26.3318 C   0  0  0  0  0  0
   36.7744    6.2424   25.9756 C   0  0  0  0  0  0
   37.2166    5.4282   24.7111 C   0  0  0  0  0  0
   36.4784    5.8454   23.4727 C   0  0  0  0  0  0
   35.2917    5.3896   23.0571 C   0  0  0  0  0  0
   34.6357    5.8726   21.8274 C   0  0  0  0  0  0
   35.2948    6.8997   21.0157 C   0  0  0  0  0  0
   36.4813    7.3829   21.3799 C   0  0  0  0  0  0
   37.1390    6.8788   22.6253 C   0  0  0  0  0  0
   38.8907   10.3211   23.2423 C   0  0  0  0  0  0
   32.6587   13.2330   22.7329 C   0  0  0  0  0  0
   30.1012   10.8621   24.5978 C   0  0  0  0  0  0
   32.6694    8.3552   23.6180 C   0  0  0  0  0  0
   30.8887    6.7283   26.7360 C   0  0  0  0  0  0
   35.3413    7.7855   29.6032 C   0  0  0  0  0  0
   37.0793    7.7055   25.8341 C   0  0  0  0  0  0
   34.1711    3.1040   23.2770 C   0  0  0  0  0  0
   33.5169    5.1377   28.8490 H   0  0  0  0  0  0
   37.5126    8.0678   19.7695 H   0  0  0  0  0  0
   29.3070   11.5220   22.8194 H   0  0  0  0  0  0
   28.1232   11.0696   24.0752 H   0  0  0  0  0  0
  1 12  2  0  0  0
  2 17  1  0  0  0
  2 34  1  0  0  0
  3 18  1  0  0  0
  3 35  1  0  0  0
  4 35  2  0  0  0
  5 22  1  0  0  0
  6 23  1  0  0  0
  6 38  1  0  0  0
  7 28  1  0  0  0
  7 40  1  0  0  0
  8 29  2  0  0  0
  9 32  2  0  0  0
 10 12  1  0  0  0
 10 31  1  0  0  0
 11 35  1  0  0  0
 12 13  1  0  0  0
 13 14  2  0  0  0
 13 33  1  0  0  0
 14 15  1  0  0  0
 15 16  2  0  0  0
 16 17  1  0  0  0
 17 18  1  0  0  0
 18 19  1  0  0  0
 19 20  2  0  0  0
 19 36  1  0  0  0
 20 21  1  0  0  0
 21 22  1  0  0  0
 21 37  1  0  0  0
 22 23  1  0  0  0
 23 24  1  0  0  0
 24 25  1  0  0  0
 25 26  1  0  0  0
 25 39  1  0  0  0
 26 27  1  0  0  0
 27 28  2  0  0  0
 27 32  1  0  0  0
 28 29  1  0  0  0
 29 30  1  0  0  0
 30 31  2  0  0  0
 31 32  1  0  0  0
  5 41  1  0  0  0
 10 42  1  0  0  0
 11 43  1  0  0  0
 11 44  1  0  0  0
M  END
>  <CHROM.0>
62.35453369,-178.17096363,56.54565526,-35.13648335,-174.69475211,-68.66928350

>  <CHROM.1>
152.54164140,-165.48872715,0.74561425,-178.98801921,-73.45657831,-121.12182707
34.56162092,8.25191438,24.30547174,-0.08898995,0.60192609,-0.59099836

>  <Name>
L_1YET

>  <RI>
0

>  <Rbt.Current_Directory>
/home/daniel/Dropbox/WORK/rDock_2013.1_src_DAG/bin

>  <Rbt.Executable>
rbdock ($Id: //depot/dev/client3/rdock/2013.1/src/exe/rbdock.cxx#4 $)

>  <Rbt.Library>
libRbt.so (2013.1, Build901 2013/11/27)

>  <Rbt.Parameter_File>
/home/daniel/dev/rdock-code//data/scripts/dock.prm

>  <Rbt.Receptor>
1YET_test.prm

>  <SCORE>
-41.0558

>  <SCORE.INTER>
-25.2859

>  <SCORE.INTER.CONST>
1

>  <SCORE.INTER.POLAR>
-2.37878

>  <SCORE.INTER.REPUL>
0

>  <SCORE.INTER.ROT>
5

>  <SCORE.INTER.VDW>
-27.5981

>  <SCORE.INTER.norm>
-0.632148

>  <SCORE.INTRA>
-10.3308

>  <SCORE.INTRA.DIHEDRAL>
-6.80738

>  <SCORE.INTRA.DIHEDRAL.0>
15.3889

>  <SCORE.INTRA.POLAR>
0

>  <SCORE.INTRA.POLAR.0>
0

>  <SCORE.INTRA.REPUL>
0

>  <SCORE.INTRA.REPUL.0>
0

>  <SCORE.INTRA.VDW>
-6.92712

>  <SCORE.INTRA.VDW.0>
7.09596

>  <SCORE.INTRA.norm>
-0.25827

>  <SCORE.RESTR>
0.0673642

>  <SCORE.RESTR.CAVITY>
0

>  <SCORE.RESTR.PHARMA>
0.0673642

>  <SCORE.RESTR.PHARMA.con_1>
0.0673642

>  <SCORE.RESTR.PHARMA.con_2>
0

>  <SCORE.RESTR.norm>
0.00168411

>  <SCORE.SYSTEM>
-5.50642

>  <SCORE.SYSTEM.CONST>
0

>  <SCORE.SYSTEM.DIHEDRAL>
1.80873

>  <SCORE.SYSTEM.POLAR>
-1.61658

>  <SCORE.SYSTEM.VDW>
-0.914432

>  <SCORE.SYSTEM.norm>
-0.137661

>  <SCORE.heavy>
40

>  <SCORE.norm>
-1.02639

$$$$
L_1YET
  rDOCK(R)          3D
libRbt.so/2013.1/901 2013/11/27
 44 45  0  0  0  0  0  0  0  0999 V2000
   37.5181    9.5016   19.9467 O   0  0  0  0  0  0
   32.5067   11.8650   23.5990 O   0  0  0  0  0  0
   30.6587    9.8471   23.9947 O   0  0  0  0  0  0
   29.7478   11.0630   25.7182 O   0  0  0  0  0  0
   33.3126    5.0161   28.5976 O   0  0  0  0  0  0
   35.6434    6.7292   28.8320 O   0  0  0  0  0  0
   34.8215    3.6714   24.4270 O   0  0  0  0  0  0
   33.5439    4.2504   22.0946 O   0  0  0  0  0  0
   37.9921    6.9385   22.9637 O   0  0  0  0  0  0
   36.7547    7.5127   20.7107 N   0  0  0  0  0  0
   28.6242   10.6835   23.7918 N   0  0  0  0  0  0
   37.0834    8.8759   20.8833 C   0  0  0  0  0  0
   36.9649    9.4746   22.2517 C   0  0  0  0  0  0
   35.7482    9.5308   22.8535 C   0  0  0  0  0  0
   35.4837   10.0852   24.1778 C   0  0  0  0  0  0
   34.2844   10.5012   24.6352 C   0  0  0  0  0  0
   32.9803   10.4960   23.9180 C   0  0  0  0  0  0
   31.8236    9.7818   24.7496 C   0  0  0  0  0  0
   32.1502    8.2184   25.0962 C   0  0  0  0  0  0
   32.1674    7.8020   26.3529 C   0  0  0  0  0  0
   32.3934    6.4154   26.8784 C   0  0  0  0  0  0
   33.3694    6.3606   28.0645 C   0  0  0  0  0  0
   34.7993    6.7237   27.6609 C   0  0  0  0  0  0
   35.4265    5.7362   26.6811 C   0  0  0  0  0  0
   36.8573    6.0781   26.1995 C   0  0  0  0  0  0
   37.3420    5.1700   25.0173 C   0  0  0  0  0  0
   36.4884    5.3190   23.7918 C   0  0  0  0  0  0
   35.3571    4.6595   23.5200 C   0  0  0  0  0  0
   34.5760    4.8852   22.2892 C   0  0  0  0  0  0
   35.0410    5.8744   21.3127 C   0  0  0  0  0  0
   36.1656    6.5540   21.5303 C   0  0  0  0  0  0
   36.9521    6.3098   22.7791 C   0  0  0  0  0  0
   38.2341   10.0046   22.8422 C   0  0  0  0  0  0
   33.3503   12.6238   22.6615 C   0  0  0  0  0  0
   29.6765   10.5826   24.6119 C   0  0  0  0  0  0
   32.3783    7.3002   23.8935 C   0  0  0  0  0  0
   31.0098    5.8776   27.3056 C   0  0  0  0  0  0
   35.3885    7.8624   29.7200 C   0  0  0  0  0  0
   36.9463    7.5371   25.8576 C   0  0  0  0  0  0
   35.4819    2.4537   24.8033 C   0  0  0  0  0  0
   33.9379    4.9426   29.4127 H   0  0  0  0  0  0
   37.0044    7.1508   19.7793 H   0  0  0  0  0  0
   28.6513   10.2402   22.8624 H   0  0  0  0  0  0
   27.7871   11.2044   24.0899 H   0  0  0  0  0  0
  1 12  2  0  0  0
  2 17  1  0  0  0
  2 34  1  0  0  0
  3 18  1  0  0  0
  3 35  1  0  0  0
  4 35  2  0  0  0
  5 22  1  0  0  0
  6 23  1  0  0  0
  6 38  1  0  0  0
  7 28  1  0  0  0
  7 40  1  0  0  0
  8 29  2  0  0  0
  9 32  2  0  0  0
 10 12  1  0  0  0
 10 31  1  0  0  0
 11 35  1  0  0  0
 12 13  1  0  0  0
 13 14  2  0  0  0
 13 33  1  0  0  0
 14 15  1  0  0  0
 15 16  2  0  0  0
 16 17  1  0  0  0
 17 18  1  0  0  0
 18 19  1  0  0  0
 19 20  2  0  0  0
 19 36  1  0  0  0
 20 21  1  0  0  0
 21 22  1  0  0  0
 21 37  1  0  0  0
 22 23  1  0  0  0
 23 24  1  0  0  0
 24 25  1  0  0  0
 25 26  1  0  0  0
 25 39  1  0  0  0
 26 27  1  0  0  0
 27 28  2  0  0  0
 27 32  1  0  0  0
 28 29  1  0  0  0
 29 30  1  0  0  0
 30 31  2  0  0  0
 31 32  1  0  0  0
  5 41  1  0  0  0
 10 42  1  0  0  0
 11 43  1  0  0  0
 11 44  1  0  0  0
M  END
>  <CHROM.0>
-179.55833750,-57.54047363,-179.82316998,-62.53682782,4.58690647,64.26085322

>  <CHROM.1>
64.43078385,-116.85076843,-4.39307905,-178.61491341,-71.80827983,-62.24272874
34.38316290,7.66418467,24.46731572,-0.30356188,0.63090780,-0.77994207

>  <Name>
L_1YET

>  <RI>
0

>  <Rbt.Current_Directory>
/home/daniel/Dropbox/WORK/rDock_2013.1_src_DAG/bin

>  <Rbt.Executable>
rbdock ($Id: //depot/dev/client3/rdock/2013.1/src/exe/rbdock.cxx#4 $)

>  <Rbt.Library>
libRbt.so (2013.1, Build901 2013/11/27)

>  <Rbt.Parameter_File>
/home/daniel/dev/rdock-code//data/scripts/dock.prm

>  <Rbt.Receptor>
1YET_test.prm

>  <SCORE>
-40.6752

>  <SCORE.INTER>
-22.9431

>  <SCORE.INTER.CONST>
1

>  <SCORE.INTER.POLAR>
-2.41049

>  <SCORE.INTER.REPUL>
0

>  <SCORE.INTER.ROT>
5

>  <SCORE.INTER.VDW>
-25.1474

>  <SCORE.INTER.norm>
-0.573577

>  <SCORE.INTRA>
-9.11731

>  <SCORE.INTRA.DIHEDRAL>
-3.49409

>  <SCORE.INTRA.DIHEDRAL.0>
15.3889

>  <SCORE.INTRA.POLAR>
0

>  <SCORE.INTRA.POLAR.0>
0

>  <SCORE.INTRA.REPUL>
0

>  <SCORE.INTRA.REPUL.0>
0

>  <SCORE.INTRA.VDW>
-7.37027

>  <SCORE.INTRA.VDW.0>
7.09596

>  <SCORE.INTRA.norm>
-0.227933

>  <SCORE.RESTR>
0.354592

>  <SCORE.RESTR.CAVITY>
0

>  <SCORE.RESTR.PHARMA>
0.354592

>  <SCORE.RESTR.PHARMA.con_1>
0.354592

>  <SCORE.RESTR.PHARMA.con_2>
0

>  <SCORE.RESTR.norm>
0.0088648

>  <SCORE.SYSTEM>
-8.96944

>  <SCORE.SYSTEM.CONST>
0

>  <SCORE.SYSTEM.DIHEDRAL>
0.175076

>  <SCORE.SYSTEM.POLAR>
-1.9037

>  <SCORE.SYSTEM.VDW>
-2.58441

>  <SCORE.SYSTEM.norm>
-0.224236

>  <SCORE.heavy>
40

>  <SCORE.norm>
-1.01688

$$$$
L_1YET
  rDOCK(R)          3D
libRbt.so/2013.1/901 2013/11/27
 44 45  0  0  0  0  0  0  0  0999 V2000
   38.0638   10.0829   20.5140 O   0  0  0  0  0  0
   33.2062   12.4976   24.3365 O   0  0  0  0  0  0
   31.0953   10.7123   24.3350 O   0  0  0  0  0  0
   29.8066   10.2243   26.1734 O   0  0  0  0  0  0
   32.8508    4.9000   28.1695 O   0  0  0  0  0  0
   35.3662    6.2222   28.7583 O   0  0  0  0  0  0
   34.3996    4.0388   23.8871 O   0  0  0  0  0  0
   33.3362    5.1469   21.6402 O   0  0  0  0  0  0
   38.0389    7.0351   23.0843 O   0  0  0  0  0  0
   37.0105    8.1205   20.9163 N   0  0  0  0  0  0
   28.9058   10.9918   24.2455 N   0  0  0  0  0  0
   37.5018    9.3819   21.3206 C   0  0  0  0  0  0
   37.3868    9.7674   22.7639 C   0  0  0  0  0  0
   36.1565    9.8925   23.3263 C   0  0  0  0  0  0
   35.8935   10.2614   24.7140 C   0  0  0  0  0  0
   34.7346   10.7588   25.1935 C   0  0  0  0  0  0
   33.4817   11.0440   24.4424 C   0  0  0  0  0  0
   32.1991   10.3711   25.1071 C   0  0  0  0  0  0
   32.3026    8.7429   25.2035 C   0  0  0  0  0  0
   32.1975    8.1349   26.3749 C   0  0  0  0  0  0
   32.2144    6.6649   26.6733 C   0  0  0  0  0  0
   33.1090    6.2916   27.8661 C   0  0  0  0  0  0
   34.5936    6.5163   27.5748 C   0  0  0  0  0  0
   35.1411    5.6201   26.4678 C   0  0  0  0  0  0
   36.6281    5.8364   26.0963 C   0  0  0  0  0  0
   37.0558    5.0692   24.7979 C   0  0  0  0  0  0
   36.2966    5.5244   23.5858 C   0  0  0  0  0  0
   35.1064    5.0758   23.1725 C   0  0  0  0  0  0
   34.4291    5.5969   21.9701 C   0  0  0  0  0  0
   35.0700    6.6556   21.1848 C   0  0  0  0  0  0
   36.2591    7.1333   21.5478 C   0  0  0  0  0  0
   36.9384    6.5905   22.7650 C   0  0  0  0  0  0
   38.6795   10.0203   23.4748 C   0  0  0  0  0  0
   34.2458   13.2910   23.6610 C   0  0  0  0  0  0
   29.9166   10.6056   25.0323 C   0  0  0  0  0  0
   32.4760    8.0039   23.8748 C   0  0  0  0  0  0
   30.7519    6.2592   26.9608 C   0  0  0  0  0  0
   35.2254    7.2342   29.8040 C   0  0  0  0  0  0
   36.9225    7.3054   26.0011 C   0  0  0  0  0  0
   34.9201    2.7316   24.1715 C   0  0  0  0  0  0
   33.4266    4.6107   28.9730 H   0  0  0  0  0  0
   37.2620    7.8798   19.9469 H   0  0  0  0  0  0
   29.0933   11.3032   23.2817 H   0  0  0  0  0  0
   27.9401   10.9778   24.6036 H   0  0  0  0  0  0
  1 12  2  0  0  0
  2 17  1  0  0  0
  2 34  1  0  0  0
  3 18  1  0  0  0
  3 35  1  0  0  0
  4 35  2  0  0  0
  5 22  1  0  0  0
  6 23  1  0  0  0
  6 38  1  0  0  0
  7 28  1  0  0  0
  7 40  1  0  0  0
  8 29  2  0  0  0
  9 32  2  0  0  0
 10 12  1  0  0  0
 10 31  1  0  0  0
 11 35  1  0  0  0
 12 13  1  0  0  0
 13 14  2  0  0  0
 13 33  1  0  0  0
 14 15  1  0  0  0
 15 16  2  0  0  0
 16 17  1  0  0  0
 17 18  1  0  0  0
 18 19  1  0  0  0
 19 20  2  0  0  0
 19 36  1  0  0  0
 20 21  1  0  0  0
 21 22  1  0  0  0
 21 37  1  0  0  0
 22 23  1  0  0  0
 23 24  1  0  0  0
 24 25  1  0  0  0
 25 26  1  0  0  0
 25 39  1  0  0  0
 26 27  1  0  0  0
 27 28  2  0  0  0
 27 32  1  0  0  0
 28 29  1  0  0  0
 29 30  1  0  0  0
 30 31  2  0  0  0
 31 32  1  0  0  0
  5 41  1  0  0  0
 10 42  1  0  0  0
 11 43  1  0  0  0
 11 44  1  0  0  0
M  END
>  <CHROM.0>
65.06564683,64.88833733,-61.22851213,-26.87745858,8.93964516,65.96402101

>  <CHROM.1>
59.56454278,-158.45858567,-2.12514987,-179.45867301,-72.59197382,-57.06601464
34.45281721,7.91246649,24.57169027,-0.08943643,0.62467489,-0.52173785

>  <Name>
L_1YET

>  <RI>
0

>  <Rbt.Current_Directory>
/home/daniel/Dropbox/WORK/rDock_2013.1_src_DAG/bin

>  <Rbt.Executable>
rbdock ($Id: //depot/dev/client3/rdock/2013.1/src/exe/rbdock.cxx#4 $)

>  <Rbt.Library>
libRbt.so (2013.1, Build901 2013/11/27)

>  <Rbt.Parameter_File>
/home/daniel/dev/rdock-code//data/scripts/dock.prm

>  <Rbt.Receptor>
1YET_test.prm

>  <SCORE>
-40.2514

>  <SCORE.INTER>
-23.1062

>  <SCORE.INTER.CONST>
1

>  <SCORE.INTER.POLAR>
-2.49392

>  <SCORE.INTER.REPUL>
0

>  <SCORE.INTER.ROT>
5

>  <SCORE.INTER.VDW>
-25.0269

>  <SCORE.INTER.norm>
-0.577656

>  <SCORE.INTRA>
-11.5311

>  <SCORE.INTRA.DIHEDRAL>
-9.03466

>  <SCORE.INTRA.DIHEDRAL.0>
15.3889

>  <SCORE.INTRA.POLAR>
0

>  <SCORE.INTRA.POLAR.0>
0

>  <SCORE.INTRA.REPUL>
0

>  <SCORE.INTRA.REPUL.0>
0

>  <SCORE.INTRA.VDW>
-7.01376

>  <SCORE.INTRA.VDW.0>
7.09596

>  <SCORE.INTRA.norm>
-0.288277

>  <SCORE.RESTR>
0.0183359

>  <SCORE.RESTR.CAVITY>
0

>  <SCORE.RESTR.PHARMA>
0.0183359

>  <SCORE.RESTR.PHARMA.con_1>
0.0183359

>  <SCORE.RESTR.PHARMA.con_2>
0

>  <SCORE.RESTR.norm>
0.000458397

>  <SCORE.SYSTEM>
-5.63241

>  <SCORE.SYSTEM.CONST>
0

>  <SCORE.SYSTEM.DIHEDRAL>
2.63857

>  <SCORE.SYSTEM.POLAR>
-1.24791

>  <SCORE.SYSTEM.VDW>
-2.70881

>  <SCORE.SYSTEM.norm>
-0.14081

>  <SCORE.heavy>
40

>  <SCORE.norm>
-1.00629

$$$$
L_1YET
  rDOCK(R)          3D
libRbt.so/2013.1/901 2013/11/27
 44 45  0  0  0  0  0  0  0  0999 V2000
   38.3049    9.8546   19.8953 O   0  0  0  0  0  0
   33.4592   12.6904   23.4330 O   0  0  0  0  0  0
   31.3277   10.9373   23.5970 O   0  0  0  0  0  0
   30.0169   10.5299   25.4393 O   0  0  0  0  0  0
   32.9989    5.5146   27.9981 O   0  0  0  0  0  0
   35.5270    6.8606   28.4667 O   0  0  0  0  0  0
   34.5562    4.2159   23.8307 O   0  0  0  0  0  0
   33.5155    5.1075   21.4792 O   0  0  0  0  0  0
   38.2336    7.0771   22.7548 O   0  0  0  0  0  0
   37.2272    7.9536   20.4843 N   0  0  0  0  0  0
   29.1344   11.1584   23.4534 N   0  0  0  0  0  0
   37.7314    9.2434   20.7643 C   0  0  0  0  0  0
   37.6146    9.7713   22.1616 C   0  0  0  0  0  0
   36.3834    9.9652   22.7021 C   0  0  0  0  0  0
   36.1187   10.4729   24.0450 C   0  0  0  0  0  0
   34.9635   11.0282   24.4665 C   0  0  0  0  0  0
   33.7173   11.2514   23.6840 C   0  0  0  0  0  0
   32.4242   10.6621   24.4051 C   0  0  0  0  0  0
   32.5083    9.0504   24.6629 C   0  0  0  0  0  0
   32.3911    8.5627   25.8882 C   0  0  0  0  0  0
   32.3896    7.1295   26.3309 C   0  0  0  0  0  0
   33.2746    6.8663   27.5597 C   0  0  0  0  0  0
   34.7630    7.0446   27.2557 C   0  0  0  0  0  0
   35.3048    6.0370   26.2459 C   0  0  0  0  0  0
   36.7958    6.1988   25.8630 C   0  0  0  0  0  0
   37.2202    5.3019   24.6493 C   0  0  0  0  0  0
   36.4716    5.6431   23.3940 C   0  0  0  0  0  0
   35.2781    5.1690   23.0206 C   0  0  0  0  0  0
   34.6121    5.5759   21.7689 C   0  0  0  0  0  0
   35.2687    6.5443   20.8860 C   0  0  0  0  0  0
   36.4617    7.0423   21.2064 C   0  0  0  0  0  0
   37.1294    6.6154   22.4751 C   0  0  0  0  0  0
   38.9071   10.0790   22.8511 C   0  0  0  0  0  0
   33.4008   13.5412   24.6326 C   0  0  0  0  0  0
   30.1391   10.8445   24.2792 C   0  0  0  0  0  0
   32.6789    8.1814   23.4150 C   0  0  0  0  0  0
   30.9212    6.7705   26.6491 C   0  0  0  0  0  0
   35.3868    7.9690   29.4097 C   0  0  0  0  0  0
   37.1077    7.6477   25.6243 C   0  0  0  0  0  0
   34.3740    2.8293   23.5070 C   0  0  0  0  0  0
   33.5833    5.2927   28.8168 H   0  0  0  0  0  0
   37.4801    7.6152   19.5449 H   0  0  0  0  0  0
   29.3325   11.4156   22.4759 H   0  0  0  0  0  0
   28.1628   11.1427   23.7952 H   0  0  0  0  0  0
  1 12  2  0  0  0
  2 17  1  0  0  0
  2 34  1  0  0  0
  3 18  1  0  0  0
  3 35  1  0  0  0
  4 35  2  0  0  0
  5 22  1  0  0  0
  6 23  1  0  0  0
  6 38  1  0  0  0
  7 28  1  0  0  0
  7 40  1  0  0  0
  8 29  2  0  0  0
  9 32  2  0  0  0
 10 12  1  0  0  0
 10 31  1  0  0  0
 11 35  1  0  0  0
 12 13  1  0  0  0
 13 14  2  0  0  0
 13 33  1  0  0  0
 14 15  1  0  0  0
 15 16  2  0  0  0
 16 17  1  0  0  0
 17 18  1  0  0  0
 18 19  1  0  0  0
 19 20  2  0  0  0
 19 36  1  0  0  0
 20 21  1  0  0  0
 21 22  1  0  0  0
 21 37  1  0  0  0
 22 23  1  0  0  0
 23 24  1  0  0  0
 24 25  1  0  0  0
 25 26  1  0  0  0
 25 39  1  0  0  0
 26 27  1  0  0  0
 27 28  2  0  0  0
 27 32  1  0  0  0
 28 29  1  0  0  0
 29 30  1  0  0  0
 30 31  2  0  0  0
 31 32  1  0  0  0
  5 41  1  0  0  0
 10 42  1  0  0  0
 11 43  1  0  0  0
 11 44  1  0  0  0
M  END
>  <CHROM.0>
179.35500785,62.77988610,-65.11282321,-28.69061357,-178.98926017,-68.13146627

>  <CHROM.1>
-55.58743632,-161.65566351,-1.77346435,179.28883537,-72.23556741,-108.20683223
34.60254199,8.13133045,24.15911588,-0.16709889,0.65476646,-0.57028868

>  <Name>
L_1YET

>  <RI>
0

>  <Rbt.Current_Directory>
/home/daniel/Dropbox/WORK/rDock_2013.1_src_DAG/bin

>  <Rbt.Executable>
rbdock ($Id: //depot/dev/client3/rdock/2013.1/src/exe/rbdock.cxx#4 $)

>  <Rbt.Library>
libRbt.so (2013.1, Build901 2013/11/27)

>  <Rbt.Parameter_File>
/home/daniel/dev/rdock-code//data/scripts/dock.prm

>  <Rbt.Receptor>
1YET_test.prm

>  <SCORE>
-39.6724

>  <SCORE.INTER>
-25.1845

>  <SCORE.INTER.CONST>
1

>  <SCORE.INTER.POLAR>
-2.33191

>  <SCORE.INTER.REPUL>
0.00619183

>  <SCORE.INTER.ROT>
5

>  <SCORE.INTER.VDW>
-27.687

>  <SCORE.INTER.norm>
-0.629612

>  <SCORE.INTRA>
-10.6461

>  <SCORE.INTRA.DIHEDRAL>
-8.55518

>  <SCORE.INTRA.DIHEDRAL.0>
15.3889

>  <SCORE.INTRA.POLAR>
0

>  <SCORE.INTRA.POLAR.0>
0

>  <SCORE.INTRA.REPUL>
0

>  <SCORE.INTRA.REPUL.0>
0

>  <SCORE.INTRA.VDW>
-6.36854

>  <SCORE.INTRA.VDW.0>
7.09596

>  <SCORE.INTRA.norm>
-0.266153

>  <SCORE.RESTR>
0.0286052

>  <SCORE.RESTR.CAVITY>
0

>  <SCORE.RESTR.PHARMA>
0.0286052

>  <SCORE.RESTR.PHARMA.con_1>
0.0286052

>  <SCORE.RESTR.PHARMA.con_2>
0

>  <SCORE.RESTR.norm>
0.00071513

>  <SCORE.SYSTEM>
-3.87034

>  <SCORE.SYSTEM.CONST>
0

>  <SCORE.SYSTEM.DIHEDRAL>
2.35889

>  <SCORE.SYSTEM.POLAR>
-1.31127

>  <SCORE.SYSTEM.VDW>
-0.591469

>  <SCORE.SYSTEM.norm>
-0.0967585

>  <SCORE.heavy>
40

>  <SCORE.norm>
-0.991809

$$$$
L_1YET
  rDOCK(R)          3D
libRbt.so/2013.1/901 2013/11/27
 44 45  0  0  0  0  0  0  0  0999 V2000
   37.5090    8.6041   19.2728 O   0  0  0  0  0  0
   32.8151   12.0332   22.4738 O   0  0  0  0  0  0
   30.9085   10.2699   23.4219 O   0  0  0  0  0  0
   29.8623   10.8494   25.3836 O   0  0  0  0  0  0
   33.6098    6.5270   28.9230 O   0  0  0  0  0  0
   36.0205    8.1174   28.6375 O   0  0  0  0  0  0
   34.8240    4.1542   25.1316 O   0  0  0  0  0  0
   33.4431    4.2340   22.7876 O   0  0  0  0  0  0
   38.0427    6.8051   22.7906 O   0  0  0  0  0  0
   36.7063    6.8968   20.5231 N   0  0  0  0  0  0
   28.7751   10.8426   23.3998 N   0  0  0  0  0  0
   37.1015    8.2422   20.3502 C   0  0  0  0  0  0
   37.0854    9.1529   21.5398 C   0  0  0  0  0  0
   35.9080    9.4161   22.1642 C   0  0  0  0  0  0
   35.7419   10.2814   23.3281 C   0  0  0  0  0  0
   34.5888   10.8585   23.7258 C   0  0  0  0  0  0
   33.2475   10.7548   23.0892 C   0  0  0  0  0  0
   32.1101   10.3216   24.1180 C   0  0  0  0  0  0
   32.3893    8.8690   24.8131 C   0  0  0  0  0  0
   32.4593    8.7613   26.1309 C   0  0  0  0  0  0
   32.6556    7.5281   26.9619 C   0  0  0  0  0  0
   33.6934    7.7023   28.0822 C   0  0  0  0  0  0
   35.1125    7.8812   27.5403 C   0  0  0  0  0  0
   35.6413    6.6573   26.7979 C   0  0  0  0  0  0
   37.0560    6.7973   26.1855 C   0  0  0  0  0  0
   37.4347    5.6103   25.2341 C   0  0  0  0  0  0
   36.5208    5.5116   24.0477 C   0  0  0  0  0  0
   35.3491    4.8692   23.9919 C   0  0  0  0  0  0
   34.5104    4.8396   22.7789 C   0  0  0  0  0  0
   34.9613    5.5431   21.5746 C   0  0  0  0  0  0
   36.1240    6.1926   21.5733 C   0  0  0  0  0  0
   36.9684    6.2082   22.8080 C   0  0  0  0  0  0
   38.4071    9.7376   21.9295 C   0  0  0  0  0  0
   32.7235   13.1789   23.3932 C   0  0  0  0  0  0
   29.8426   10.6738   24.1884 C   0  0  0  0  0  0
   32.5104    7.6815   23.8557 C   0  0  0  0  0  0
   31.2767    7.1827   27.5663 C   0  0  0  0  0  0
   35.7873    9.3928   29.3132 C   0  0  0  0  0  0
   37.1874    8.1270   25.5013 C   0  0  0  0  0  0
   35.5477    3.1810   25.8994 C   0  0  0  0  0  0
   34.3116    6.5910   29.6742 H   0  0  0  0  0  0
   36.8878    6.3119   19.6949 H   0  0  0  0  0  0
   28.8502   10.6691   22.3873 H   0  0  0  0  0  0
   27.8781   11.1460   23.8053 H   0  0  0  0  0  0
  1 12  2  0  0  0
  2 17  1  0  0  0
  2 34  1  0  0  0
  3 18  1  0  0  0
  3 35  1  0  0  0
  4 35  2  0  0  0
  5 22  1  0  0  0
  6 23  1  0  0  0
  6 38  1  0  0  0
  7 28  1  0  0  0
  7 40  1  0  0  0
  8 29  2  0  0  0
  9 32  2  0  0  0
 10 12  1  0  0  0
 10 31  1  0  0  0
 11 35  1  0  0  0
 12 13  1  0  0  0
 13 14  2  0  0  0
 13 33  1  0  0  0
 14 15  1  0  0  0
 15 16  2  0  0  0
 16 17  1  0  0  0
 17 18  1  0  0  0
 18 19  1  0  0  0
 19 20  2  0  0  0
 19 36  1  0  0  0
 20 21  1  0  0  0
 21 22  1  0  0  0
 21 37  1  0  0  0
 22 23  1  0  0  0
 23 24  1  0  0  0
 24 25  1  0  0  0
 25 26  1  0  0  0
 25 39  1  0  0  0
 26 27  1  0  0  0
 27 28  2  0  0  0
 27 32  1  0  0  0
 28 29  1  0  0  0
 29 30  1  0  0  0
 30 31  2  0  0  0
 31 32  1  0  0  0
  5 41  1  0  0  0
 10 42  1  0  0  0
 11 43  1  0  0  0
 11 44  1  0  0  0
M  END
>  <CHROM.0>
62.98184762,63.71516927,67.78521695,-136.41821652,-168.53427813,-67.61179318

>  <CHROM.1>
-59.11582903,-144.63727632,-11.61537528,178.34535377,-66.83070045,-50.99135764
34.51896142,8.03270521,24.32683370,-0.06870223,0.69019276,-1.02727139

>  <Name>
L_1YET

>  <RI>
0

>  <Rbt.Current_Directory>
/home/daniel/Dropbox/WORK/rDock_2013.1_src_DAG/bin

>  <Rbt.Executable>
rbdock ($Id: //depot/dev/client3/rdock/2013.1/src/exe/rbdock.cxx#4 $)

>  <Rbt.Library>
libRbt.so (2013.1, Build901 2013/11/27)

>  <Rbt.Parameter_File>
/home/daniel/dev/rdock-code//data/scripts/dock.prm

>  <Rbt.Receptor>
1YET_test.prm

>  <SCORE>
-38.9682

>  <SCORE.INTER>
-25.4238

>  <SCORE.INTER.CONST>
1

>  <SCORE.INTER.POLAR>
-2.9995

>  <SCORE.INTER.REPUL>
0.0717601

>  <SCORE.INTER.ROT>
5

>  <SCORE.INTER.VDW>
-25.9843

>  <SCORE.INTER.norm>
-0.635596

>  <SCORE.INTRA>
-8.82019

>  <SCORE.INTRA.DIHEDRAL>
-6.60101

>  <SCORE.INTRA.DIHEDRAL.0>
15.3889

>  <SCORE.INTRA.POLAR>
0

>  <SCORE.INTRA.POLAR.0>
0

>  <SCORE.INTRA.REPUL>
0

>  <SCORE.INTRA.REPUL.0>
0

>  <SCORE.INTRA.VDW>
-5.51968

>  <SCORE.INTRA.VDW.0>
7.09596

>  <SCORE.INTRA.norm>
-0.220505

>  <SCORE.RESTR>
0.385092

>  <SCORE.RESTR.CAVITY>
0

>  <SCORE.RESTR.PHARMA>
0.385092

>  <SCORE.RESTR.PHARMA.con_1>
0.203114

>  <SCORE.RESTR.PHARMA.con_2>
0.181978

>  <SCORE.RESTR.norm>
0.0096273

>  <SCORE.SYSTEM>
-5.1093

>  <SCORE.SYSTEM.CONST>
0

>  <SCORE.SYSTEM.DIHEDRAL>
3.7143

>  <SCORE.SYSTEM.POLAR>
-1.82352

>  <SCORE.SYSTEM.VDW>
-0.766477

>  <SCORE.SYSTEM.norm>
-0.127732

>  <SCORE.heavy>
40

>  <SCORE.norm>
-0.974206

$$$$
L_1YET
  rDOCK(R)          3D
libRbt.so/2013.1/901 2013/11/27
 44 45  0  0  0  0  0  0  0  0999 V2000
   38.3142   10.1947   20.2627 O   0  0  0  0  0  0
   33.5034   12.8955   23.9505 O   0  0  0  0  0  0
   31.3397   11.1752   23.9978 O   0  0  0  0  0  0
   30.0035   10.5198   25.7481 O   0  0  0  0  0  0
   32.8909    5.4617   28.0620 O   0  0  0  0  0  0
   35.4406    6.7295   28.6224 O   0  0  0  0  0  0
   34.4447    4.3939   23.8283 O   0  0  0  0  0  0
   33.4319    5.4478   21.5325 O   0  0  0  0  0  0
   38.1786    7.2480   22.9450 O   0  0  0  0  0  0
   37.1993    8.2811   20.7291 N   0  0  0  0  0  0
   29.1422   11.2158   23.7755 N   0  0  0  0  0  0
   37.7254    9.5417   21.0901 C   0  0  0  0  0  0
   37.6114    9.9845   22.5169 C   0  0  0  0  0  0
   36.3813   10.1673   23.0637 C   0  0  0  0  0  0
   36.1193   10.5960   24.4343 C   0  0  0  0  0  0
   34.9723   11.1455   24.8850 C   0  0  0  0  0  0
   33.7342   11.4393   24.1130 C   0  0  0  0  0  0
   32.4271   10.8305   24.7915 C   0  0  0  0  0  0
   32.4808    9.2047   24.9497 C   0  0  0  0  0  0
   32.3487    8.6447   26.1421 C   0  0  0  0  0  0
   32.3191    7.1872   26.4955 C   0  0  0  0  0  0
   33.1932    6.8325   27.7089 C   0  0  0  0  0  0
   34.6860    7.0018   27.4222 C   0  0  0  0  0  0
   35.2144    6.0485   26.3542 C   0  0  0  0  0  0
   36.7100    6.2063   25.9876 C   0  0  0  0  0  0
   37.1240    5.3782   24.7225 C   0  0  0  0  0  0
   36.3878    5.8099   23.4878 C   0  0  0  0  0  0
   35.1878    5.3818   23.0814 C   0  0  0  0  0  0
   34.5354    5.8772   21.8546 C   0  0  0  0  0  0
   35.2137    6.8859   21.0357 C   0  0  0  0  0  0
   36.4139    7.3412   21.3907 C   0  0  0  0  0  0
   37.0676    6.8247   22.6332 C   0  0  0  0  0  0
   38.9059   10.2253   23.2289 C   0  0  0  0  0  0
   32.7079   13.2825   22.7742 C   0  0  0  0  0  0
   30.1399   10.9293   24.6197 C   0  0  0  0  0  0
   32.6417    8.4114   23.6512 C   0  0  0  0  0  0
   30.8429    6.8363   26.7854 C   0  0  0  0  0  0
   35.3164    7.7802   29.6313 C   0  0  0  0  0  0
   37.0492    7.6611   25.8399 C   0  0  0  0  0  0
   34.1984    3.0473   23.3967 C   0  0  0  0  0  0
   31.9624    5.4176   28.5058 H   0  0  0  0  0  0
   37.4507    7.9967   19.7716 H   0  0  0  0  0  0
   29.3524   11.5614   22.8282 H   0  0  0  0  0  0
   28.1640   11.0908   24.0730 H   0  0  0  0  0  0
  1 12  2  0  0  0
  2 17  1  0  0  0
  2 34  1  0  0  0
  3 18  1  0  0  0
  3 35  1  0  0  0
  4 35  2  0  0  0
  5 22  1  0  0  0
  6 23  1  0  0  0
  6 38  1  0  0  0
  7 28  1  0  0  0
  7 40  1  0  0  0
  8 29  2  0  0  0
  9 32  2  0  0  0
 10 12  1  0  0  0
 10 31  1  0  0  0
 11 35  1  0  0  0
 12 13  1  0  0  0
 13 14  2  0  0  0
 13 33  1  0  0  0
 14 15  1  0  0  0
 15 16  2  0  0  0
 16 17  1  0  0  0
 17 18  1  0  0  0
 18 19  1  0  0  0
 19 20  2  0  0  0
 19 36  1  0  0  0
 20 21  1  0  0  0
 21 22  1  0  0  0
 21 37  1  0  0  0
 22 23  1  0  0  0
 23 24  1  0  0  0
 24 25  1  0  0  0
 25 26  1  0  0  0
 25 39  1  0  0  0
 26 27  1  0  0  0
 27 28  2  0  0  0
 27 32  1  0  0  0
 28 29  1  0  0  0
 29 30  1  0  0  0
 30 31  2  0  0  0
 31 32  1  0  0  0
  5 41  1  0  0  0
 10 42  1  0  0  0
 11 43  1  0  0  0
 11 44  1  0  0  0
M  END
>  <CHROM.0>
-50.13939116,63.55835156,-64.22278818,-29.16891402,-173.91977047,-67.83895253

>  <CHROM.1>
154.32699161,-168.05692554,3.26351341,-73.22251154,-72.25736842,-110.56291447
34.53593535,8.25643751,24.32651624,-0.10030453,0.61805282,-0.58196216

>  <Name>
L_1YET

>  <RI>
0

>  <Rbt.Current_Directory>
/home/daniel/Dropbox/WORK/rDock_2013.1_src_DAG/bin

>  <Rbt.Executable>
rbdock ($Id: //depot/dev/client3/rdock/2013.1/src/exe/rbdock.cxx#4 $)

>  <Rbt.Library>
libRbt.so (2013.1, Build901 2013/11/27)

>  <Rbt.Parameter_File>
/home/daniel/dev/rdock-code//data/scripts/dock.prm

>  <Rbt.Receptor>
1YET_test.prm

>  <SCORE>
-38.6754

>  <SCORE.INTER>
-26.2153

>  <SCORE.INTER.CONST>
1

>  <SCORE.INTER.POLAR>
-2.58948

>  <SCORE.INTER.REPUL>
0

>  <SCORE.INTER.ROT>
5

>  <SCORE.INTER.VDW>
-27.8111

>  <SCORE.INTER.norm>
-0.655383

>  <SCORE.INTRA>
-9.12482

>  <SCORE.INTRA.DIHEDRAL>
-5.99919

>  <SCORE.INTRA.DIHEDRAL.0>
15.3889

>  <SCORE.INTRA.POLAR>
0

>  <SCORE.INTRA.POLAR.0>
0

>  <SCORE.INTRA.REPUL>
0

>  <SCORE.INTRA.REPUL.0>
0

>  <SCORE.INTRA.VDW>
-6.12522

>  <SCORE.INTRA.VDW.0>
7.09596

>  <SCORE.INTRA.norm>
-0.22812

>  <SCORE.RESTR>
0.0498806

>  <SCORE.RESTR.CAVITY>
0

>  <SCORE.RESTR.PHARMA>
0.0498806

>  <SCORE.RESTR.PHARMA.con_1>
0.0498806

>  <SCORE.RESTR.PHARMA.con_2>
0

>  <SCORE.RESTR.norm>
0.00124701

>  <SCORE.SYSTEM>
-3.38515

>  <SCORE.SYSTEM.CONST>
0

>  <SCORE.SYSTEM.DIHEDRAL>
2.81492

>  <SCORE.SYSTEM.POLAR>
-1.31258

>  <SCORE.SYSTEM.REPUL>
0.000394501

>  <SCORE.SYSTEM.VDW>
-0.331802

>  <SCORE.SYSTEM.norm>
-0.0846286

>  <SCORE.heavy>
40

>  <SCORE.norm>
-0.966885

$$$$
L_1YET
  rDOCK(R)          3D
libRbt.so/2013.1/901 2013/11/27
 44 45  0  0  0  0  0  0  0  0999 V2000
   37.8922   10.0200   20.4180 O   0  0  0  0  0  0
   33.1680   12.5054   24.3604 O   0  0  0  0  0  0
   31.0371   10.7451   24.4226 O   0  0  0  0  0  0
   29.7836   10.1707   26.2604 O   0  0  0  0  0  0
   32.8272    4.9261   28.2309 O   0  0  0  0  0  0
   35.3729    6.2206   28.7467 O   0  0  0  0  0  0
   34.2498    4.0315   23.9117 O   0  0  0  0  0  0
   33.1393    5.1441   21.6900 O   0  0  0  0  0  0
   37.9010    6.9818   22.9998 O   0  0  0  0  0  0
   36.8273    8.0716   20.8560 N   0  0  0  0  0  0
   28.8397   10.9645   24.3640 N   0  0  0  0  0  0
   37.3441    9.3286   21.2421 C   0  0  0  0  0  0
   37.2725    9.7205   22.6865 C   0  0  0  0  0  0
   36.0593    9.8621   23.2812 C   0  0  0  0  0  0
   35.8382   10.2390   24.6741 C   0  0  0  0  0  0
   34.6984   10.7517   25.1827 C   0  0  0  0  0  0
   33.4292   11.0490   24.4644 C   0  0  0  0  0  0
   32.1573   10.3936   25.1661 C   0  0  0  0  0  0
   32.2443    8.7646   25.2659 C   0  0  0  0  0  0
   32.1637    8.1620   26.4420 C   0  0  0  0  0  0
   32.1714    6.6931   26.7456 C   0  0  0  0  0  0
   33.0934    6.3134   27.9152 C   0  0  0  0  0  0
   34.5721    6.5196   27.5833 C   0  0  0  0  0  0
   35.0791    5.6131   26.4654 C   0  0  0  0  0  0
   36.5580    5.8106   26.0532 C   0  0  0  0  0  0
   36.9415    5.0337   24.7467 C   0  0  0  0  0  0
   36.1553    5.4935   23.5538 C   0  0  0  0  0  0
   34.9493    5.0576   23.1743 C   0  0  0  0  0  0
   34.2459    5.5824   21.9887 C   0  0  0  0  0  0
   34.8778    6.6307   21.1823 C   0  0  0  0  0  0
   36.0817    7.0956   21.5113 C   0  0  0  0  0  0
   36.7872    6.5491   22.7119 C   0  0  0  0  0  0
   38.5868    9.9606   23.3614 C   0  0  0  0  0  0
   34.1805   13.2786   23.6233 C   0  0  0  0  0  0
   29.8699   10.5859   25.1291 C   0  0  0  0  0  0
   32.3732    8.0190   23.9359 C   0  0  0  0  0  0
   30.7125    6.3056   27.0738 C   0  0  0  0  0  0
   35.2879    7.2478   29.7835 C   0  0  0  0  0  0
   36.8669    7.2756   25.9444 C   0  0  0  0  0  0
   34.0671    2.6780   23.4700 C   0  0  0  0  0  0
   33.4068    4.6384   29.0323 H   0  0  0  0  0  0
   37.0498    7.8245   19.8812 H   0  0  0  0  0  0
   29.0074   11.3072   23.4073 H   0  0  0  0  0  0
   27.8789   10.9132   24.7318 H   0  0  0  0  0  0
  1 12  2  0  0  0
  2 17  1  0  0  0
  2 34  1  0  0  0
  3 18  1  0  0  0
  3 35  1  0  0  0
  4 35  2  0  0  0
  5 22  1  0  0  0
  6 23  1  0  0  0
  6 38  1  0  0  0
  7 28  1  0  0  0
  7 40  1  0  0  0
  8 29  2  0  0  0
  9 32  2  0  0  0
 10 12  1  0  0  0
 10 31  1  0  0  0
 11 35  1  0  0  0
 12 13  1  0  0  0
 13 14  2  0  0  0
 13 33  1  0  0  0
 14 15  1  0  0  0
 15 16  2  0  0  0
 16 17  1  0  0  0
 17 18  1  0  0  0
 18 19  1  0  0  0
 19 20  2  0  0  0
 19 36  1  0  0  0
 20 21  1  0  0  0
 21 22  1  0  0  0
 21 37  1  0  0  0
 22 23  1  0  0  0
 23 24  1  0  0  0
 24 25  1  0  0  0
 25 26  1  0  0  0
 25 39  1  0  0  0
 26 27  1  0  0  0
 27 28  2  0  0  0
 27 32  1  0  0  0
 28 29  1  0  0  0
 29 30  1  0  0  0
 30 31  2  0  0  0
 31 32  1  0  0  0
  5 41  1  0  0  0
 10 42  1  0  0  0
 11 43  1  0  0  0
 11 44  1  0  0  0
M  END
>  <CHROM.0>
179.34779584,62.86039282,58.63422676,-179.04359220,6.71859787,64.57968342

>  <CHROM.1>
61.11711337,-161.73936498,-1.13512526,-178.29109316,-73.46425721,-107.42254870
34.34740122,7.89869618,24.55711817,-0.03841656,0.65701264,-0.50242003

>  <Name>
L_1YET

>  <RI>
0

>  <Rbt.Current_Directory>
/home/daniel/Dropbox/WORK/rDock_2013.1_src_DAG/bin

>  <Rbt.Executable>
rbdock ($Id: //depot/dev/client3/rdock/2013.1/src/exe/rbdock.cxx#4 $)

>  <Rbt.Library>
libRbt.so (2013.1, Build901 2013/11/27)

>  <Rbt.Parameter_File>
/home/daniel/dev/rdock-code//data/scripts/dock.prm

>  <Rbt.Receptor>
1YET_test.prm

>  <SCORE>
-37.9692

>  <SCORE.INTER>
-21.081

>  <SCORE.INTER.CONST>
1

>  <SCORE.INTER.POLAR>
-1.77115

>  <SCORE.INTER.REPUL>
0

>  <SCORE.INTER.ROT>
5

>  <SCORE.INTER.VDW>
-25.4591

>  <SCORE.INTER.norm>
-0.527024

>  <SCORE.INTRA>
-11.7327

>  <SCORE.INTRA.DIHEDRAL>
-8.47597

>  <SCORE.INTRA.DIHEDRAL.0>
15.3889

>  <SCORE.INTRA.POLAR>
0

>  <SCORE.INTRA.POLAR.0>
0

>  <SCORE.INTRA.REPUL>
0

>  <SCORE.INTRA.REPUL.0>
0

>  <SCORE.INTRA.VDW>
-7.49474

>  <SCORE.INTRA.VDW.0>
7.09596

>  <SCORE.INTRA.norm>
-0.293318

>  <SCORE.RESTR>
6.30599e-05

>  <SCORE.RESTR.CAVITY>
0

>  <SCORE.RESTR.PHARMA>
6.30599e-05

>  <SCORE.RESTR.PHARMA.con_1>
6.30599e-05

>  <SCORE.RESTR.PHARMA.con_2>
0

>  <SCORE.RESTR.norm>
1.5765e-06

>  <SCORE.SYSTEM>
-5.1556

>  <SCORE.SYSTEM.CONST>
0

>  <SCORE.SYSTEM.DIHEDRAL>
0.226375

>  <SCORE.SYSTEM.POLAR>
-0.736399

>  <SCORE.SYSTEM.VDW>
-2.76503

>  <SCORE.SYSTEM.norm>
-0.12889

>  <SCORE.heavy>
40

>  <SCORE.norm>
-0.94923

$$$$
L_1YET
  rDOCK(R)          3D
libRbt.so/2013.1/901 2013/11/27
 44 45  0  0  0  0  0  0  0  0999 V2000
   37.8931   10.0404   20.4416 O   0  0  0  0  0  0
   33.2189   12.5426   24.4327 O   0  0  0  0  0  0
   31.0624   10.8133   24.4789 O   0  0  0  0  0  0
   29.8053   10.2198   26.3081 O   0  0  0  0  0  0
   32.7783    4.9184   28.2035 O   0  0  0  0  0  0
   35.3446    6.1682   28.7277 O   0  0  0  0  0  0
   34.1737    4.0604   23.8681 O   0  0  0  0  0  0
   33.0726    5.2188   21.6650 O   0  0  0  0  0  0
   37.8652    6.9684   22.9828 O   0  0  0  0  0  0
   36.8008    8.1023   20.8574 N   0  0  0  0  0  0
   28.8618   10.9921   24.4026 N   0  0  0  0  0  0
   37.3374    9.3463   21.2583 C   0  0  0  0  0  0
   37.2763    9.7200   22.7080 C   0  0  0  0  0  0
   36.0673    9.8715   23.3087 C   0  0  0  0  0  0
   35.8563   10.2331   24.7072 C   0  0  0  0  0  0
   34.7259   10.7558   25.2265 C   0  0  0  0  0  0
   33.4589   11.0813   24.5165 C   0  0  0  0  0  0
   32.1796   10.4355   25.2137 C   0  0  0  0  0  0
   32.2428    8.8042   25.2916 C   0  0  0  0  0  0
   32.1571    8.1873   26.4600 C   0  0  0  0  0  0
   32.1440    6.7145   26.7440 C   0  0  0  0  0  0
   33.0640    6.3057   27.9054 C   0  0  0  0  0  0
   34.5446    6.4945   27.5711 C   0  0  0  0  0  0
   35.0345    5.5955   26.4396 C   0  0  0  0  0  0
   36.5148    5.7766   26.0250 C   0  0  0  0  0  0
   36.8826    5.0116   24.7071 C   0  0  0  0  0  0
   36.0994    5.4988   23.5230 C   0  0  0  0  0  0
   34.8859    5.0858   23.1419 C   0  0  0  0  0  0
   34.1865    5.6367   21.9657 C   0  0  0  0  0  0
   34.8313    6.6861   21.1712 C   0  0  0  0  0  0
   36.0430    7.1288   21.5022 C   0  0  0  0  0  0
   36.7442    6.5560   22.6931 C   0  0  0  0  0  0
   38.5962    9.9317   23.3815 C   0  0  0  0  0  0
   34.2410   13.3108   23.7036 C   0  0  0  0  0  0
   29.8928   10.6342   25.1766 C   0  0  0  0  0  0
   32.3564    8.0745   23.9515 C   0  0  0  0  0  0
   30.6806    6.3443   27.0720 C   0  0  0  0  0  0
   35.3078    7.2000   29.7628 C   0  0  0  0  0  0
   36.8450    7.2382   25.9346 C   0  0  0  0  0  0
   34.4847    2.6595   23.8348 C   0  0  0  0  0  0
   33.3632    4.6088   28.9928 H   0  0  0  0  0  0
   37.0165    7.8650   19.8786 H   0  0  0  0  0  0
   29.0307   11.3357   23.4464 H   0  0  0  0  0  0
   27.8993   10.9239   24.7629 H   0  0  0  0  0  0
  1 12  2  0  0  0
  2 17  1  0  0  0
  2 34  1  0  0  0
  3 18  1  0  0  0
  3 35  1  0  0  0
  4 35  2  0  0  0
  5 22  1  0  0  0
  6 23  1  0  0  0
  6 38  1  0  0  0
  7 28  1  0  0  0
  7 40  1  0  0  0
  8 29  2  0  0  0
  9 32  2  0  0  0
 10 12  1  0  0  0
 10 31  1  0  0  0
 11 35  1  0  0  0
 12 13  1  0  0  0
 13 14  2  0  0  0
 13 33  1  0  0  0
 14 15  1  0  0  0
 15 16  2  0  0  0
 16 17  1  0  0  0
 17 18  1  0  0  0
 18 19  1  0  0  0
 19 20  2  0  0  0
 19 36  1  0  0  0
 20 21  1  0  0  0
 21 22  1  0  0  0
 21 37  1  0  0  0
 22 23  1  0  0  0
 23 24  1  0  0  0
 24 25  1  0  0  0
 25 26  1  0  0  0
 25 39  1  0  0  0
 26 27  1  0  0  0
 27 28  2  0  0  0
 27 32  1  0  0  0
 28 29  1  0  0  0
 29 30  1  0  0  0
 30 31  2  0  0  0
 31 32  1  0  0  0
  5 41  1  0  0  0
 10 42  1  0  0  0
 11 43  1  0  0  0
 11 44  1  0  0  0
M  END
>  <CHROM.0>
-51.06973714,62.92940405,-64.62763566,-62.64995884,2.85153785,-68.51611261

>  <CHROM.1>
61.05925990,-163.08862844,1.18480974,-178.86676481,-75.07327729,-74.25002164
34.34495504,7.91263121,24.57412364,-0.06668784,0.66130817,-0.49639455

>  <Name>
L_1YET

>  <RI>
0

>  <Rbt.Current_Directory>
/home/daniel/Dropbox/WORK/rDock_2013.1_src_DAG/bin

>  <Rbt.Executable>
rbdock ($Id: //depot/dev/client3/rdock/2013.1/src/exe/rbdock.cxx#4 $)

>  <Rbt.Library>
libRbt.so (2013.1, Build901 2013/11/27)

>  <Rbt.Parameter_File>
/home/daniel/dev/rdock-code//data/scripts/dock.prm

>  <Rbt.Receptor>
1YET_test.prm

>  <SCORE>
-37.8578

>  <SCORE.INTER>
-21.2469

>  <SCORE.INTER.CONST>
1

>  <SCORE.INTER.POLAR>
-1.9062

>  <SCORE.INTER.REPUL>
0

>  <SCORE.INTER.ROT>
5

>  <SCORE.INTER.VDW>
-25.1658

>  <SCORE.INTER.norm>
-0.531172

>  <SCORE.INTRA>
-11.8132

>  <SCORE.INTRA.DIHEDRAL>
-8.40353

>  <SCORE.INTRA.DIHEDRAL.0>
15.3889

>  <SCORE.INTRA.POLAR>
0

>  <SCORE.INTRA.POLAR.0>
0

>  <SCORE.INTRA.REPUL>
0

>  <SCORE.INTRA.REPUL.0>
0

>  <SCORE.INTRA.VDW>
-7.61148

>  <SCORE.INTRA.VDW.0>
7.09596

>  <SCORE.INTRA.norm>
-0.295331

>  <SCORE.RESTR>
5.79063e-05

>  <SCORE.RESTR.CAVITY>
0

>  <SCORE.RESTR.PHARMA>
5.79063e-05

>  <SCORE.RESTR.PHARMA.con_1>
5.79063e-05

>  <SCORE.RESTR.PHARMA.con_2>
0

>  <SCORE.RESTR.norm>
1.44766e-06

>  <SCORE.SYSTEM>
-4.79772

>  <SCORE.SYSTEM.CONST>
0

>  <SCORE.SYSTEM.DIHEDRAL>
0.870187

>  <SCORE.SYSTEM.POLAR>
-1.31069

>  <SCORE.SYSTEM.REPUL>
0.0156287

>  <SCORE.SYSTEM.VDW>
-0.854625

>  <SCORE.SYSTEM.norm>
-0.119943

>  <SCORE.heavy>
40

>  <SCORE.norm>
-0.946444

$$$$
L_1YET
  rDOCK(R)          3D
libRbt.so/2013.1/901 2013/11/27
 44 45  0  0  0  0  0  0  0  0999 V2000
   40.1591    6.5189   25.9500 O   0  0  0  0  0  0
   34.7829    4.2518   29.1115 O   0  0  0  0  0  0
   33.1773    6.3957   29.7965 O   0  0  0  0  0  0
   30.8815    6.3800   29.7086 O   0  0  0  0  0  0
   30.0590    9.0537   23.8991 O   0  0  0  0  0  0
   31.3528    6.9161   22.4231 O   0  0  0  0  0  0
   34.1469   11.2182   24.1877 O   0  0  0  0  0  0
   35.4937   11.6072   26.5206 O   0  0  0  0  0  0
   37.5275    7.9496   23.3187 O   0  0  0  0  0  0
   38.8288    8.3120   25.5796 N   0  0  0  0  0  0
   32.0069    6.9213   31.5948 N   0  0  0  0  0  0
   39.0565    6.9203   25.6661 C   0  0  0  0  0  0
   37.9386    5.9875   25.3124 C   0  0  0  0  0  0
   36.7964    6.0040   26.0476 C   0  0  0  0  0  0
   35.6311    5.1545   25.8205 C   0  0  0  0  0  0
   34.6703    4.8726   26.7249 C   0  0  0  0  0  0
   34.5723    5.3461   28.1326 C   0  0  0  0  0  0
   33.1595    6.0052   28.4630 C   0  0  0  0  0  0
   32.8196    7.3029   27.5294 C   0  0  0  0  0  0
   31.7211    7.3252   26.7907 C   0  0  0  0  0  0
   31.2038    8.4257   25.9125 C   0  0  0  0  0  0
   30.7273    7.9382   24.5349 C   0  0  0  0  0  0
   31.8784    7.4292   23.6658 C   0  0  0  0  0  0
   32.8874    8.5118   23.2938 C   0  0  0  0  0  0
   34.1008    8.0449   22.4538 C   0  0  0  0  0  0
   35.2142    9.1403   22.3195 C   0  0  0  0  0  0
   35.8023    9.5265   23.6453 C   0  0  0  0  0  0
   35.3309   10.4488   24.4913 C   0  0  0  0  0  0
   35.9730   10.7503   25.7845 C   0  0  0  0  0  0
   37.1775   10.0141   26.1791 C   0  0  0  0  0  0
   37.6934    9.0900   25.3706 C   0  0  0  0  0  0
   37.0365    8.7995   24.0584 C   0  0  0  0  0  0
   38.1993    5.0664   24.1616 C   0  0  0  0  0  0
   36.1474    3.7025   29.1624 C   0  0  0  0  0  0
   31.9138    6.5505   30.3127 C   0  0  0  0  0  0
   33.8117    8.4649   27.6125 C   0  0  0  0  0  0
   30.0326    9.0822   26.6762 C   0  0  0  0  0  0
   32.1700    5.8479   21.8498 C   0  0  0  0  0  0
   34.6435    6.7605   23.0100 C   0  0  0  0  0  0
   34.1439   12.5517   23.6566 C   0  0  0  0  0  0
   30.7083    9.8505   23.8318 H   0  0  0  0  0  0
   39.6864    8.8705   25.6960 H   0  0  0  0  0  0
   32.9326    7.0433   32.0297 H   0  0  0  0  0  0
   31.1528    7.0850   32.1469 H   0  0  0  0  0  0
  1 12  2  0  0  0
  2 17  1  0  0  0
  2 34  1  0  0  0
  3 18  1  0  0  0
  3 35  1  0  0  0
  4 35  2  0  0  0
  5 22  1  0  0  0
  6 23  1  0  0  0
  6 38  1  0  0  0
  7 28  1  0  0  0
  7 40  1  0  0  0
  8 29  2  0  0  0
  9 32  2  0  0  0
 10 12  1  0  0  0
 10 31  1  0  0  0
 11 35  1  0  0  0
 12 13  1  0  0  0
 13 14  2  0  0  0
 13 33  1  0  0  0
 14 15  1  0  0  0
 15 16  2  0  0  0
 16 17  1  0  0  0
 17 18  1  0  0  0
 18 19  1  0  0  0
 19 20  2  0  0  0
 19 36  1  0  0  0
 20 21  1  0  0  0
 21 22  1  0  0  0
 21 37  1  0  0  0
 22 23  1  0  0  0
 23 24  1  0  0  0
 24 25  1  0  0  0
 25 26  1  0  0  0
 25 39  1  0  0  0
 26 27  1  0  0  0
 27 28  2  0  0  0
 27 32  1  0  0  0
 28 29  1  0  0  0
 29 30  1  0  0  0
 30 31  2  0  0  0
 31 32  1  0  0  0
  5 41  1  0  0  0
 10 42  1  0  0  0
 11 43  1  0  0  0
 11 44  1  0  0  0
M  END
>  <CHROM.0>
64.07136802,-58.08122863,-59.27081830,93.29891967,6.92763163,-67.74481941

>  <CHROM.1>
68.17840374,-159.33751839,-0.19897494,57.84496976,-150.64322113,-98.80265462
34.46801274,7.66029729,25.78684483,-0.79660122,-0.16407816,2.15119290

>  <Name>
L_1YET

>  <RI>
0

>  <Rbt.Current_Directory>
/home/daniel/Dropbox/WORK/rDock_2013.1_src_DAG/bin

>  <Rbt.Executable>
rbdock ($Id: //depot/dev/client3/rdock/2013.1/src/exe/rbdock.cxx#4 $)

>  <Rbt.Library>
libRbt.so (2013.1, Build901 2013/11/27)

>  <Rbt.Parameter_File>
/home/daniel/dev/rdock-code//data/scripts/dock.prm

>  <Rbt.Receptor>
1YET_test.prm

>  <SCORE>
-17.9545

>  <SCORE.INTER>
-6.69195

>  <SCORE.INTER.CONST>
1

>  <SCORE.INTER.POLAR>
-0.481098

>  <SCORE.INTER.REPUL>
0.0878048

>  <SCORE.INTER.ROT>
5

>  <SCORE.INTER.VDW>
-15.8952

>  <SCORE.INTER.norm>
-0.167299

>  <SCORE.INTRA>
-4.89551

>  <SCORE.INTRA.DIHEDRAL>
-4.86646

>  <SCORE.INTRA.DIHEDRAL.0>
15.3889

>  <SCORE.INTRA.POLAR>
0

>  <SCORE.INTRA.POLAR.0>
0

>  <SCORE.INTRA.REPUL>
0

>  <SCORE.INTRA.REPUL.0>
0

>  <SCORE.INTRA.VDW>
-2.46229

>  <SCORE.INTRA.VDW.0>
7.09596

>  <SCORE.INTRA.norm>
-0.122388

>  <SCORE.RESTR>
2.95493

>  <SCORE.RESTR.CAVITY>
0

>  <SCORE.RESTR.PHARMA>
2.95493

>  <SCORE.RESTR.PHARMA.con_1>
2.95493

>  <SCORE.RESTR.PHARMA.con_2>
0

>  <SCORE.RESTR.norm>
0.0738733

>  <SCORE.SYSTEM>
-9.32196

>  <SCORE.SYSTEM.CONST>
0

>  <SCORE.SYSTEM.DIHEDRAL>
2.58062

>  <SCORE.SYSTEM.POLAR>
-2.86966

>  <SCORE.SYSTEM.VDW>
-0.855418

>  <SCORE.SYSTEM.norm>
-0.233049

>  <SCORE.heavy>
40

>  <SCORE.norm>
-0.448862

$$$$
L_1YET
  rDOCK(R)          3D
libRbt.so/2013.1/901 2013/11/27
 44 45  0  0  0  0  0  0  0  0999 V2000
   40.1081    6.1956   26.0091 O   0  0  0  0  0  0
   34.5292    4.1996   28.9972 O   0  0  0  0  0  0
   32.9933    6.4183   29.5987 O   0  0  0  0  0  0
   30.8630    7.2026   29.2448 O   0  0  0  0  0  0
   30.2066    9.1302   23.5615 O   0  0  0  0  0  0
   31.4599    6.9207   22.1580 O   0  0  0  0  0  0
   34.3704   11.1227   23.9749 O   0  0  0  0  0  0
   35.6477   11.4843   26.3509 O   0  0  0  0  0  0
   37.6369    7.7027   23.2672 O   0  0  0  0  0  0
   38.8702    8.0387   25.5699 N   0  0  0  0  0  0
   32.0600    7.7655   31.0799 N   0  0  0  0  0  0
   39.0347    6.6398   25.6804 C   0  0  0  0  0  0
   37.8913    5.7507   25.2967 C   0  0  0  0  0  0
   36.7251    5.8251   25.9894 C   0  0  0  0  0  0
   35.5334    5.0230   25.7294 C   0  0  0  0  0  0
   34.5294    4.7938   26.6012 C   0  0  0  0  0  0
   34.4011    5.2892   27.9989 C   0  0  0  0  0  0
   33.0069    6.0118   28.2699 C   0  0  0  0  0  0
   32.7568    7.3106   27.3099 C   0  0  0  0  0  0
   31.6876    7.3700   26.5313 C   0  0  0  0  0  0
   31.2500    8.4801   25.6223 C   0  0  0  0  0  0
   30.8030    7.9955   24.2338 C   0  0  0  0  0  0
   31.9618    7.4270   23.4133 C   0  0  0  0  0  0
   33.0291    8.4609   23.0661 C   0  0  0  0  0  0
   34.2509    7.9322   22.2765 C   0  0  0  0  0  0
   35.4143    8.9775   22.1706 C   0  0  0  0  0  0
   35.9703    9.3554   23.5126 C   0  0  0  0  0  0
   35.5086   10.3077   24.3302 C   0  0  0  0  0  0
   36.1160   10.5983   25.6426 C   0  0  0  0  0  0
   37.2728    9.8168   26.0893 C   0  0  0  0  0  0
   37.7775    8.8614   25.3108 C   0  0  0  0  0  0
   37.1564    8.5821   23.9788 C   0  0  0  0  0  0
   38.1536    4.8047   24.1667 C   0  0  0  0  0  0
   35.8656    3.5922   29.1028 C   0  0  0  0  0  0
   31.8676    7.1401   29.9129 C   0  0  0  0  0  0
   33.7942    8.4304   27.4161 C   0  0  0  0  0  0
   30.0812    9.1955   26.3352 C   0  0  0  0  0  0
   32.2214    5.7800   21.6516 C   0  0  0  0  0  0
   34.7176    6.6332   22.8666 C   0  0  0  0  0  0
   34.2996   11.9859   22.8302 C   0  0  0  0  0  0
   29.2906    9.3379   23.9843 H   0  0  0  0  0  0
   39.7462    8.5617   25.7113 H   0  0  0  0  0  0
   32.9520    7.6545   31.5828 H   0  0  0  0  0  0
   31.3160    8.3580   31.4755 H   0  0  0  0  0  0
  1 12  2  0  0  0
  2 17  1  0  0  0
  2 34  1  0  0  0
  3 18  1  0  0  0
  3 35  1  0  0  0
  4 35  2  0  0  0
  5 22  1  0  0  0
  6 23  1  0  0  0
  6 38  1  0  0  0
  7 28  1  0  0  0
  7 40  1  0  0  0
  8 29  2  0  0  0
  9 32  2  0  0  0
 10 12  1  0  0  0
 10 31  1  0  0  0
 11 35  1  0  0  0
 12 13  1  0  0  0
 13 14  2  0  0  0
 13 33  1  0  0  0
 14 15  1  0  0  0
 15 16  2  0  0  0
 16 17  1  0  0  0
 17 18  1  0  0  0
 18 19  1  0  0  0
 19 20  2  0  0  0
 19 36  1  0  0  0
 20 21  1  0  0  0
 21 22  1  0  0  0
 21 37  1  0  0  0
 22 23  1  0  0  0
 23 24  1  0  0  0
 24 25  1  0  0  0
 25 26  1  0  0  0
 25 39  1  0  0  0
 26 27  1  0  0  0
 27 28  2  0  0  0
 27 32  1  0  0  0
 28 29  1  0  0  0
 29 30  1  0  0  0
 30 31  2  0  0  0
 31 32  1  0  0  0
  5 41  1  0  0  0
 10 42  1  0  0  0
 11 43  1  0  0  0
 11 44  1  0  0  0
M  END
>  <CHROM.0>
64.10496091,64.94192143,-173.61958612,170.68671874,-163.14332370,-67.79279352

>  <CHROM.1>
68.09149150,175.66150989,14.79170199,-72.34363774,-148.53230552,-60.54306676
34.48909843,7.61368750,25.59399874,-0.56117548,-0.19796149,2.10753276

>  <Name>
L_1YET

>  <RI>
0

>  <Rbt.Current_Directory>
/home/daniel/Dropbox/WORK/rDock_2013.1_src_DAG/bin

>  <Rbt.Executable>
rbdock ($Id: //depot/dev/client3/rdock/2013.1/src/exe/rbdock.cxx#4 $)

>  <Rbt.Library>
libRbt.so (2013.1, Build901 2013/11/27)

>  <Rbt.Parameter_File>
/home/daniel/dev/rdock-code//data/scripts/dock.prm

>  <Rbt.Receptor>
1YET_test.prm

>  <SCORE>
-17.7395

>  <SCORE.INTER>
-8.08645

>  <SCORE.INTER.CONST>
1

>  <SCORE.INTER.POLAR>
-1.12515

>  <SCORE.INTER.REPUL>
0.359171

>  <SCORE.INTER.ROT>
5

>  <SCORE.INTER.VDW>
-16.4568

>  <SCORE.INTER.norm>
-0.202161

>  <SCORE.INTRA>
-3.87451

>  <SCORE.INTRA.DIHEDRAL>
-5.11613

>  <SCORE.INTRA.DIHEDRAL.0>
15.3889

>  <SCORE.INTRA.POLAR>
0

>  <SCORE.INTRA.POLAR.0>
0

>  <SCORE.INTRA.REPUL>
0

>  <SCORE.INTRA.REPUL.0>
0

>  <SCORE.INTRA.VDW>
-1.31645

>  <SCORE.INTRA.VDW.0>
7.09596

>  <SCORE.INTRA.norm>
-0.0968628

>  <SCORE.RESTR>
1.56916

>  <SCORE.RESTR.CAVITY>
0

>  <SCORE.RESTR.PHARMA>
1.56916

>  <SCORE.RESTR.PHARMA.con_1>
1.56916

>  <SCORE.RESTR.PHARMA.con_2>
0

>  <SCORE.RESTR.norm>
0.039229

>  <SCORE.SYSTEM>
-7.34774

>  <SCORE.SYSTEM.CONST>
0

>  <SCORE.SYSTEM.DIHEDRAL>
1.21876

>  <SCORE.SYSTEM.POLAR>
-1.94783

>  <SCORE.SYSTEM.VDW>
-1.3345

>  <SCORE.SYSTEM.norm>
-0.183693

>  <SCORE.heavy>
40

>  <SCORE.norm>
-0.443489

$$$$
L_1YET
  rDOCK(R)          3D
libRbt.so/2013.1/901 2013/11/27
 44 45  0  0  0  0  0  0  0  0999 V2000
   31.5832    7.2595   30.9380 O   0  0  0  0  0  0
   29.2641    9.5601   25.1615 O   0  0  0  0  0  0
   31.1851   11.1790   24.0072 O   0  0  0  0  0  0
   32.2009   11.5367   21.9777 O   0  0  0  0  0  0
   36.6074    7.1388   21.5899 O   0  0  0  0  0  0
   35.0825    4.8257   22.4539 O   0  0  0  0  0  0
   37.6338    8.0161   26.0234 O   0  0  0  0  0  0
   36.7466   10.2025   27.3798 O   0  0  0  0  0  0
   34.4549    5.6431   28.6937 O   0  0  0  0  0  0
   33.5828    7.7563   30.0015 N   0  0  0  0  0  0
   30.4088   12.7413   22.6520 N   0  0  0  0  0  0
   32.2676    7.2434   29.9435 C   0  0  0  0  0  0
   31.7992    6.6130   28.6675 C   0  0  0  0  0  0
   31.7223    7.3656   27.5391 C   0  0  0  0  0  0
   31.2839    6.8878   26.2312 C   0  0  0  0  0  0
   30.8367    7.6581   25.2176 C   0  0  0  0  0  0
   30.6860    9.1385   25.1921 C   0  0  0  0  0  0
   31.4004    9.8081   23.9347 C   0  0  0  0  0  0
   33.0084    9.5208   23.8787 C   0  0  0  0  0  0
   33.5459    8.9347   22.8202 C   0  0  0  0  0  0
   34.9892    8.6282   22.5499 C   0  0  0  0  0  0
   35.2238    7.2086   22.0094 C   0  0  0  0  0  0
   34.9179    6.1301   23.0499 C   0  0  0  0  0  0
   35.8438    6.1711   24.2621 C   0  0  0  0  0  0
   35.5513    5.1322   25.3717 C   0  0  0  0  0  0
   36.3693    5.3873   26.6844 C   0  0  0  0  0  0
   36.0452    6.7103   27.3148 C   0  0  0  0  0  0
   36.5990    7.8922   27.0233 C   0  0  0  0  0  0
   36.2032    9.1470   27.6901 C   0  0  0  0  0  0
   35.1558    9.1180   28.7152 C   0  0  0  0  0  0
   34.5763    7.9663   29.0492 C   0  0  0  0  0  0
   34.9927    6.7000   28.3704 C   0  0  0  0  0  0
   31.4142    5.1693   28.7581 C   0  0  0  0  0  0
   28.7826   10.2497   26.3693 C   0  0  0  0  0  0
   31.3477   11.7985   22.7921 C   0  0  0  0  0  0
   33.8174   10.0090   25.0823 C   0  0  0  0  0  0
   35.4741    9.6735   21.5210 C   0  0  0  0  0  0
   34.0128    4.4808   21.5188 C   0  0  0  0  0  0
   34.0748    5.0685   25.6356 C   0  0  0  0  0  0
   37.6000    8.9207   24.9095 C   0  0  0  0  0  0
   37.2187    7.4038   22.3755 H   0  0  0  0  0  0
   33.8674    8.0343   30.9515 H   0  0  0  0  0  0
   29.7187   12.8961   23.4009 H   0  0  0  0  0  0
   30.3761   13.3124   21.7954 H   0  0  0  0  0  0
  1 12  2  0  0  0
  2 17  1  0  0  0
  2 34  1  0  0  0
  3 18  1  0  0  0
  3 35  1  0  0  0
  4 35  2  0  0  0
  5 22  1  0  0  0
  6 23  1  0  0  0
  6 38  1  0  0  0
  7 28  1  0  0  0
  7 40  1  0  0  0
  8 29  2  0  0  0
  9 32  2  0  0  0
 10 12  1  0  0  0
 10 31  1  0  0  0
 11 35  1  0  0  0
 12 13  1  0  0  0
 13 14  2  0  0  0
 13 33  1  0  0  0
 14 15  1  0  0  0
 15 16  2  0  0  0
 16 17  1  0  0  0
 17 18  1  0  0  0
 18 19  1  0  0  0
 19 20  2  0  0  0
 19 36  1  0  0  0
 20 21  1  0  0  0
 21 22  1  0  0  0
 21 37  1  0  0  0
 22 23  1  0  0  0
 23 24  1  0  0  0
 24 25  1  0  0  0
 25 26  1  0  0  0
 25 39  1  0  0  0
 26 27  1  0  0  0
 27 28  2  0  0  0
 27 32  1  0  0  0
 28 29  1  0  0  0
 29 30  1  0  0  0
 30 31  2  0  0  0
 31 32  1  0  0  0
  5 41  1  0  0  0
 10 42  1  0  0  0
 11 43  1  0  0  0
 11 44  1  0  0  0
M  END
>  <CHROM.0>
62.94759030,-59.60544450,68.82895612,57.84156068,-174.79296656,-69.75539939

>  <CHROM.1>
112.65793090,-159.43104428,-39.54174552,55.33200720,-72.97816739,126.57840357
33.70169714,8.03727397,25.51469972,1.31693800,-0.55066368,1.91169803

>  <Name>
L_1YET

>  <RI>
0

>  <Rbt.Current_Directory>
/home/daniel/Dropbox/WORK/rDock_2013.1_src_DAG/bin

>  <Rbt.Executable>
rbdock ($Id: //depot/dev/client3/rdock/2013.1/src/exe/rbdock.cxx#4 $)

>  <Rbt.Library>
libRbt.so (2013.1, Build901 2013/11/27)

>  <Rbt.Parameter_File>
/home/daniel/dev/rdock-code//data/scripts/dock.prm

>  <Rbt.Receptor>
1YET_test.prm

>  <SCORE>
-13.7062

>  <SCORE.INTER>
-1.17737

>  <SCORE.INTER.CONST>
1

>  <SCORE.INTER.POLAR>
-0.598316

>  <SCORE.INTER.REPUL>
0

>  <SCORE.INTER.ROT>
5

>  <SCORE.INTER.VDW>
-9.54309

>  <SCORE.INTER.norm>
-0.0294341

>  <SCORE.INTRA>
-4.9945

>  <SCORE.INTRA.DIHEDRAL>
6.85808

>  <SCORE.INTRA.DIHEDRAL.0>
15.3889

>  <SCORE.INTRA.POLAR>
0

>  <SCORE.INTRA.POLAR.0>
0

>  <SCORE.INTRA.REPUL>
0

>  <SCORE.INTRA.REPUL.0>
0

>  <SCORE.INTRA.VDW>
-8.42354

>  <SCORE.INTRA.VDW.0>
7.09596

>  <SCORE.INTRA.norm>
-0.124863

>  <SCORE.RESTR>
2.99712

>  <SCORE.RESTR.CAVITY>
0

>  <SCORE.RESTR.PHARMA>
2.99712

>  <SCORE.RESTR.PHARMA.con_1>
2.62585

>  <SCORE.RESTR.PHARMA.con_2>
0.371277

>  <SCORE.RESTR.norm>
0.074928

>  <SCORE.SYSTEM>
-10.5314

>  <SCORE.SYSTEM.CONST>
0

>  <SCORE.SYSTEM.DIHEDRAL>
0.750768

>  <SCORE.SYSTEM.POLAR>
-2.86543

>  <SCORE.SYSTEM.VDW>
-1.16434

>  <SCORE.SYSTEM.norm>
-0.263285

>  <SCORE.heavy>
40

>  <SCORE.norm>
-0.342654

$$$$
L_1YET
  rDOCK(R)          3D
libRbt.so/2013.1/901 2013/11/27
 44 45  0  0  0  0  0  0  0  0999 V2000
   31.5785    7.2127   30.9365 O   0  0  0  0  0  0
   29.2278    9.3906   25.1254 O   0  0  0  0  0  0
   31.1221   11.0259   23.9503 O   0  0  0  0  0  0
   32.2926   11.3977   22.0086 O   0  0  0  0  0  0
   36.6163    7.0458   21.5965 O   0  0  0  0  0  0
   35.1304    4.7193   22.4916 O   0  0  0  0  0  0
   37.6217    8.0035   26.0181 O   0  0  0  0  0  0
   36.6951   10.1934   27.3423 O   0  0  0  0  0  0
   34.4805    5.6143   28.7185 O   0  0  0  0  0  0
   33.5705    7.7305   29.9952 N   0  0  0  0  0  0
   30.4334   12.5746   22.5335 N   0  0  0  0  0  0
   32.2644    7.1942   29.9431 C   0  0  0  0  0  0
   31.8086    6.5378   28.6757 C   0  0  0  0  0  0
   31.7202    7.2728   27.5367 C   0  0  0  0  0  0
   31.2919    6.7691   26.2352 C   0  0  0  0  0  0
   30.8328    7.5170   25.2103 C   0  0  0  0  0  0
   30.6566    8.9942   25.1635 C   0  0  0  0  0  0
   31.3611    9.6580   23.8976 C   0  0  0  0  0  0
   32.9738    9.3977   23.8474 C   0  0  0  0  0  0
   33.5227    8.8060   22.7978 C   0  0  0  0  0  0
   34.9714    8.5206   22.5334 C   0  0  0  0  0  0
   35.2312    7.0977   22.0134 C   0  0  0  0  0  0
   34.9425    6.0290   23.0689 C   0  0  0  0  0  0
   35.8660    6.1032   24.2813 C   0  0  0  0  0  0
   35.5899    5.0753   25.4052 C   0  0  0  0  0  0
   36.4017    5.3630   26.7151 C   0  0  0  0  0  0
   36.0541    6.6890   27.3262 C   0  0  0  0  0  0
   36.5879    7.8760   27.0186 C   0  0  0  0  0  0
   36.1696    9.1331   27.6671 C   0  0  0  0  0  0
   35.1216    9.1006   28.6913 C   0  0  0  0  0  0
   34.5615    7.9440   29.0411 C   0  0  0  0  0  0
   35.0005    6.6755   28.3808 C   0  0  0  0  0  0
   31.4484    5.0891   28.7864 C   0  0  0  0  0  0
   28.9337   10.7451   25.6206 C   0  0  0  0  0  0
   31.3725   11.6468   22.7509 C   0  0  0  0  0  0
   33.7727    9.9168   25.0447 C   0  0  0  0  0  0
   35.4396    9.5593   21.4903 C   0  0  0  0  0  0
   34.0666    4.3417   21.5624 C   0  0  0  0  0  0
   34.1145    4.9899   25.6684 C   0  0  0  0  0  0
   38.6080    7.0043   25.7196 C   0  0  0  0  0  0
   37.2235    7.3037   22.3876 H   0  0  0  0  0  0
   33.8490    8.0268   30.9415 H   0  0  0  0  0  0
   29.6828   12.7192   23.2240 H   0  0  0  0  0  0
   30.4611   13.1443   21.6758 H   0  0  0  0  0  0
  1 12  2  0  0  0
  2 17  1  0  0  0
  2 34  1  0  0  0
  3 18  1  0  0  0
  3 35  1  0  0  0
  4 35  2  0  0  0
  5 22  1  0  0  0
  6 23  1  0  0  0
  6 38  1  0  0  0
  7 28  1  0  0  0
  7 40  1  0  0  0
  8 29  2  0  0  0
  9 32  2  0  0  0
 10 12  1  0  0  0
 10 31  1  0  0  0
 11 35  1  0  0  0
 12 13  1  0  0  0
 13 14  2  0  0  0
 13 33  1  0  0  0
 14 15  1  0  0  0
 15 16  2  0  0  0
 16 17  1  0  0  0
 17 18  1  0  0  0
 18 19  1  0  0  0
 19 20  2  0  0  0
 19 36  1  0  0  0
 20 21  1  0  0  0
 21 22  1  0  0  0
 21 37  1  0  0  0
 22 23  1  0  0  0
 23 24  1  0  0  0
 24 25  1  0  0  0
 25 26  1  0  0  0
 25 39  1  0  0  0
 26 27  1  0  0  0
 27 28  2  0  0  0
 27 32  1  0  0  0
 28 29  1  0  0  0
 29 30  1  0  0  0
 30 31  2  0  0  0
 31 32  1  0  0  0
  5 41  1  0  0  0
 10 42  1  0  0  0
 11 43  1  0  0  0
 11 44  1  0  0  0
M  END
>  <CHROM.0>
62.95161108,-57.07513491,69.81713045,168.82533896,5.43579280,-68.89905463

>  <CHROM.1>
156.01587899,-163.99627375,-39.67477262,57.10251236,-73.09057730,-31.22287260
33.73335354,7.91825296,25.51036590,1.06705993,-0.54983402,1.87850745

>  <Name>
L_1YET

>  <RI>
0

>  <Rbt.Current_Directory>
/home/daniel/Dropbox/WORK/rDock_2013.1_src_DAG/bin

>  <Rbt.Executable>
rbdock ($Id: //depot/dev/client3/rdock/2013.1/src/exe/rbdock.cxx#4 $)

>  <Rbt.Library>
libRbt.so (2013.1, Build901 2013/11/27)

>  <Rbt.Parameter_File>
/home/daniel/dev/rdock-code//data/scripts/dock.prm

>  <Rbt.Receptor>
1YET_test.prm

>  <SCORE>
-10.895

>  <SCORE.INTER>
1.20761

>  <SCORE.INTER.CONST>
1

>  <SCORE.INTER.POLAR>
-0.472835

>  <SCORE.INTER.REPUL>
0

>  <SCORE.INTER.ROT>
5

>  <SCORE.INTER.VDW>
-7.58476

>  <SCORE.INTER.norm>
0.0301901

>  <SCORE.INTRA>
-4.21718

>  <SCORE.INTRA.DIHEDRAL>
-0.0201988

>  <SCORE.INTRA.DIHEDRAL.0>
15.3889

>  <SCORE.INTRA.POLAR>
0

>  <SCORE.INTRA.POLAR.0>
0

>  <SCORE.INTRA.REPUL>
0

>  <SCORE.INTRA.REPUL.0>
0

>  <SCORE.INTRA.VDW>
-4.20708

>  <SCORE.INTRA.VDW.0>
7.09596

>  <SCORE.INTRA.norm>
-0.105429

>  <SCORE.RESTR>
2.5803

>  <SCORE.RESTR.CAVITY>
0

>  <SCORE.RESTR.PHARMA>
2.5803

>  <SCORE.RESTR.PHARMA.con_1>
2.22157

>  <SCORE.RESTR.PHARMA.con_2>
0.358737

>  <SCORE.RESTR.norm>
0.0645076

>  <SCORE.SYSTEM>
-10.4657

>  <SCORE.SYSTEM.CONST>
0

>  <SCORE.SYSTEM.DIHEDRAL>
1.05164

>  <SCORE.SYSTEM.POLAR>
-2.86824

>  <SCORE.SYSTEM.VDW>
-1.23955

>  <SCORE.SYSTEM.norm>
-0.261643

>  <SCORE.heavy>
40

>  <SCORE.norm>
-0.272375

$$$$
L_1YET
  rDOCK(R)          3D
libRbt.so/2013.1/901 2013/11/27
 44 45  0  0  0  0  0  0  0  0999 V2000
   31.7726    7.7547   30.5139 O   0  0  0  0  0  0
   29.6071    9.8825   24.6130 O   0  0  0  0  0  0
   31.6437   11.2701   23.3598 O   0  0  0  0  0  0
   31.3378   12.4761   21.4283 O   0  0  0  0  0  0
   36.7104    6.6709   21.1819 O   0  0  0  0  0  0
   35.0114    4.5434   22.1865 O   0  0  0  0  0  0
   37.8323    7.7279   25.5526 O   0  0  0  0  0  0
   37.1312   10.0559   26.7759 O   0  0  0  0  0  0
   34.4915    5.7817   28.3666 O   0  0  0  0  0  0
   33.7993    8.0327   29.5458 N   0  0  0  0  0  0
   29.6859   11.2263   22.3375 N   0  0  0  0  0  0
   32.4471    7.6242   29.5211 C   0  0  0  0  0  0
   31.9216    6.9578   28.2863 C   0  0  0  0  0  0
   31.8976    7.6450   27.1147 C   0  0  0  0  0  0
   31.4141    7.1262   25.8387 C   0  0  0  0  0  0
   31.0232    7.8675   24.7812 C   0  0  0  0  0  0
   30.9909    9.3511   24.6666 C   0  0  0  0  0  0
   31.7484    9.8845   23.3699 C   0  0  0  0  0  0
   33.3279    9.4665   23.3287 C   0  0  0  0  0  0
   33.8100    8.7768   22.3066 C   0  0  0  0  0  0
   35.2224    8.3401   22.0528 C   0  0  0  0  0  0
   35.3395    6.8763   21.5987 C   0  0  0  0  0  0
   34.9552    5.8903   22.7029 C   0  0  0  0  0  0
   35.8894    5.9297   23.9089 C   0  0  0  0  0  0
   35.5220    4.9861   25.0797 C   0  0  0  0  0  0
   36.3662    5.2532   26.3733 C   0  0  0  0  0  0
   36.1529    6.6334   26.9231 C   0  0  0  0  0  0
   36.7974    7.7475   26.5599 C   0  0  0  0  0  0
   36.5073    9.0677   27.1504 C   0  0  0  0  0  0
   35.4677    9.1843   28.1770 C   0  0  0  0  0  0
   34.8003    8.1049   28.5810 C   0  0  0  0  0  0
   35.1098    6.7708   27.9792 C   0  0  0  0  0  0
   31.4232    5.5576   28.4646 C   0  0  0  0  0  0
   29.0001   10.1991   25.9159 C   0  0  0  0  0  0
   30.9234   11.7320   22.2853 C   0  0  0  0  0  0
   34.1811    9.9598   24.4992 C   0  0  0  0  0  0
   35.7825    9.2795   20.9620 C   0  0  0  0  0  0
   33.9536    4.2529   21.2199 C   0  0  0  0  0  0
   34.0470    5.0568   25.3494 C   0  0  0  0  0  0
   37.9112    8.6239   24.4340 C   0  0  0  0  0  0
   36.8741    7.1549   20.2875 H   0  0  0  0  0  0
   34.1114    8.3435   30.4769 H   0  0  0  0  0  0
   29.4187   10.5972   23.1082 H   0  0  0  0  0  0
   29.0003   11.4660   21.6071 H   0  0  0  0  0  0
  1 12  2  0  0  0
  2 17  1  0  0  0
  2 34  1  0  0  0
  3 18  1  0  0  0
  3 35  1  0  0  0
  4 35  2  0  0  0
  5 22  1  0  0  0
  6 23  1  0  0  0
  6 38  1  0  0  0
  7 28  1  0  0  0
  7 40  1  0  0  0
  8 29  2  0  0  0
  9 32  2  0  0  0
 10 12  1  0  0  0
 10 31  1  0  0  0
 11 35  1  0  0  0
 12 13  1  0  0  0
 13 14  2  0  0  0
 13 33  1  0  0  0
 14 15  1  0  0  0
 15 16  2  0  0  0
 16 17  1  0  0  0
 17 18  1  0  0  0
 18 19  1  0  0  0
 19 20  2  0  0  0
 19 36  1  0  0  0
 20 21  1  0  0  0
 21 22  1  0  0  0
 21 37  1  0  0  0
 22 23  1  0  0  0
 23 24  1  0  0  0
 24 25  1  0  0  0
 25 26  1  0  0  0
 25 39  1  0  0  0
 26 27  1  0  0  0
 27 28  2  0  0  0
 27 32  1  0  0  0
 28 29  1  0  0  0
 29 30  1  0  0  0
 30 31  2  0  0  0
 31 32  1  0  0  0
  5 41  1  0  0  0
 10 42  1  0  0  0
 11 43  1  0  0  0
 11 44  1  0  0  0
M  END
>  <CHROM.0>
177.77380259,-60.37342304,-173.94959767,-178.11968417,3.83889417,-171.39714811

>  <CHROM.1>
89.43669334,-115.85338773,-119.64024047,-72.14193295,-69.83706040,130.98754164
33.81212315,8.00435305,25.07015480,0.98165091,-0.56411129,1.80607004

>  <Name>
L_1YET

>  <RI>
0

>  <Rbt.Current_Directory>
/home/daniel/Dropbox/WORK/rDock_2013.1_src_DAG/bin

>  <Rbt.Executable>
rbdock ($Id: //depot/dev/client3/rdock/2013.1/src/exe/rbdock.cxx#4 $)

>  <Rbt.Library>
libRbt.so (2013.1, Build901 2013/11/27)

>  <Rbt.Parameter_File>
/home/daniel/dev/rdock-code//data/scripts/dock.prm

>  <Rbt.Receptor>
1YET_test.prm

>  <SCORE>
-8.49243

>  <SCORE.INTER>
0.183491

>  <SCORE.INTER.CONST>
1

>  <SCORE.INTER.POLAR>
0

>  <SCORE.INTER.REPUL>
0.342736

>  <SCORE.INTER.ROT>
5

>  <SCORE.INTER.VDW>
-11.9302

>  <SCORE.INTER.norm>
0.00458729

>  <SCORE.INTRA>
-1.57172

>  <SCORE.INTRA.DIHEDRAL>
16.6698

>  <SCORE.INTRA.DIHEDRAL.0>
15.3889

>  <SCORE.INTRA.POLAR>
-1

>  <SCORE.INTRA.POLAR.0>
0

>  <SCORE.INTRA.REPUL>
0

>  <SCORE.INTRA.REPUL.0>
0

>  <SCORE.INTRA.VDW>
-6.50663

>  <SCORE.INTRA.VDW.0>
7.09596

>  <SCORE.INTRA.norm>
-0.039293

>  <SCORE.RESTR>
0.411406

>  <SCORE.RESTR.CAVITY>
0

>  <SCORE.RESTR.PHARMA>
0.411406

>  <SCORE.RESTR.PHARMA.con_1>
0.239343

>  <SCORE.RESTR.PHARMA.con_2>
0.172063

>  <SCORE.RESTR.norm>
0.0102852

>  <SCORE.SYSTEM>
-7.5156

>  <SCORE.SYSTEM.CONST>
0

>  <SCORE.SYSTEM.DIHEDRAL>
0.512088

>  <SCORE.SYSTEM.POLAR>
-1.9037

>  <SCORE.SYSTEM.REPUL>
0.00755738

>  <SCORE.SYSTEM.VDW>
-1.33687

>  <SCORE.SYSTEM.norm>
-0.18789

>  <SCORE.heavy>
40

>  <SCORE.norm>
-0.212311

$$$$
L_1YET
  rDOCK(R)          3D
libRbt.so/2013.1/901 2013/11/27
 44 45  0  0  0  0  0  0  0  0999 V2000
   29.9228    6.4231   26.5327 O   0  0  0  0  0  0
   33.8562    3.3484   22.1609 O   0  0  0  0  0  0
   34.5277    5.1285   20.1549 O   0  0  0  0  0  0
   36.5525    5.5382   19.1496 O   0  0  0  0  0  0
   39.1523    9.9970   22.7003 O   0  0  0  0  0  0
   39.0831    8.5425   25.2107 O   0  0  0  0  0  0
   34.9505   11.6984   23.6640 O   0  0  0  0  0  0
   32.7091   11.0942   22.2432 O   0  0  0  0  0  0
   33.0298    8.8754   27.0119 O   0  0  0  0  0  0
   30.8641    8.2766   25.6379 N   0  0  0  0  0  0
   34.6642    5.1983   17.9512 N   0  0  0  0  0  0
   30.9283    6.9514   26.1234 C   0  0  0  0  0  0
   32.2650    6.2784   26.1967 C   0  0  0  0  0  0
   32.9665    6.0594   25.0541 C   0  0  0  0  0  0
   34.2746    5.4163   24.9740 C   0  0  0  0  0  0
   34.8103    4.8489   23.8732 C   0  0  0  0  0  0
   34.2111    4.7445   22.5148 C   0  0  0  0  0  0
   35.1805    5.2859   21.3715 C   0  0  0  0  0  0
   35.5868    6.8574   21.5620 C   0  0  0  0  0  0
   36.8591    7.2124   21.6520 C   0  0  0  0  0  0
   37.4421    8.5887   21.7782 C   0  0  0  0  0  0
   38.5396    8.6940   22.8490 C   0  0  0  0  0  0
   37.9924    8.5109   24.2654 C   0  0  0  0  0  0
   37.0202    9.6074   24.6908 C   0  0  0  0  0  0
   36.3966    9.4491   26.0987 C   0  0  0  0  0  0
   35.2309   10.4608   26.3726 C   0  0  0  0  0  0
   34.0781   10.2773   25.4292 C   0  0  0  0  0  0
   33.9447   10.8200   24.2142 C   0  0  0  0  0  0
   32.7759   10.5688   23.3502 C   0  0  0  0  0  0
   31.7070    9.6849   23.8242 C   0  0  0  0  0  0
   31.7860    9.1241   25.0296 C   0  0  0  0  0  0
   32.9733    9.3934   25.8988 C   0  0  0  0  0  0
   32.7108    5.8641   27.5642 C   0  0  0  0  0  0
   32.8641    3.2015   21.0837 C   0  0  0  0  0  0
   35.3676    5.3113   19.0836 C   0  0  0  0  0  0
   34.4238    7.8517   21.5789 C   0  0  0  0  0  0
   38.0189    8.9493   20.3913 C   0  0  0  0  0  0
   39.3749    7.2353   25.7969 C   0  0  0  0  0  0
   35.9645    8.0269   26.3092 C   0  0  0  0  0  0
   34.8210   13.1222   23.5358 C   0  0  0  0  0  0
   39.8688    9.9577   21.9613 H   0  0  0  0  0  0
   29.9369    8.7081   25.7602 H   0  0  0  0  0  0
   33.6536    5.0029   17.9900 H   0  0  0  0  0  0
   35.1332    5.3067   17.0405 H   0  0  0  0  0  0
  1 12  2  0  0  0
  2 17  1  0  0  0
  2 34  1  0  0  0
  3 18  1  0  0  0
  3 35  1  0  0  0
  4 35  2  0  0  0
  5 22  1  0  0  0
  6 23  1  0  0  0
  6 38  1  0  0  0
  7 28  1  0  0  0
  7 40  1  0  0  0
  8 29  2  0  0  0
  9 32  2  0  0  0
 10 12  1  0  0  0
 10 31  1  0  0  0
 11 35  1  0  0  0
 12 13  1  0  0  0
 13 14  2  0  0  0
 13 33  1  0  0  0
 14 15  1  0  0  0
 15 16  2  0  0  0
 16 17  1  0  0  0
 17 18  1  0  0  0
 18 19  1  0  0  0
 19 20  2  0  0  0
 19 36  1  0  0  0
 20 21  1  0  0  0
 21 22  1  0  0  0
 21 37  1  0  0  0
 22 23  1  0  0  0
 23 24  1  0  0  0
 24 25  1  0  0  0
 25 26  1  0  0  0
 25 39  1  0  0  0
 26 27  1  0  0  0
 27 28  2  0  0  0
 27 32  1  0  0  0
 28 29  1  0  0  0
 29 30  1  0  0  0
 30 31  2  0  0  0
 31 32  1  0  0  0
  5 41  1  0  0  0
 10 42  1  0  0  0
 11 43  1  0  0  0
 11 44  1  0  0  0
M  END
>  <CHROM.0>
62.32573103,-57.19392426,70.61117444,-0.27583612,-159.82902752,-68.80920495

>  <CHROM.1>
159.64267170,-167.77400313,2.43171770,-83.41811269,-108.54481946,-105.97717316
34.78987804,7.80373419,23.57690263,2.08357681,0.53371079,0.74411581

>  <Name>
L_1YET

>  <RI>
0

>  <Rbt.Current_Directory>
/home/daniel/Dropbox/WORK/rDock_2013.1_src_DAG/bin

>  <Rbt.Executable>
rbdock ($Id: //depot/dev/client3/rdock/2013.1/src/exe/rbdock.cxx#4 $)

>  <Rbt.Library>
libRbt.so (2013.1, Build901 2013/11/27)

>  <Rbt.Parameter_File>
/home/daniel/dev/rdock-code//data/scripts/dock.prm

>  <Rbt.Receptor>
1YET_test.prm

>  <SCORE>
-1.71471

>  <SCORE.INTER>
5.04292

>  <SCORE.INTER.CONST>
1

>  <SCORE.INTER.POLAR>
-0.236206

>  <SCORE.INTER.REPUL>
0.335104

>  <SCORE.INTER.ROT>
5

>  <SCORE.INTER.VDW>
-6.2295

>  <SCORE.INTER.norm>
0.126073

>  <SCORE.INTRA>
-6.30563

>  <SCORE.INTRA.DIHEDRAL>
0.655524

>  <SCORE.INTRA.DIHEDRAL.0>
15.3889

>  <SCORE.INTRA.POLAR>
0

>  <SCORE.INTRA.POLAR.0>
0

>  <SCORE.INTRA.REPUL>
0

>  <SCORE.INTRA.REPUL.0>
0

>  <SCORE.INTRA.VDW>
-6.63339

>  <SCORE.INTRA.VDW.0>
7.09596

>  <SCORE.INTRA.norm>
-0.157641

>  <SCORE.RESTR>
7.50908

>  <SCORE.RESTR.CAVITY>
0

>  <SCORE.RESTR.PHARMA>
7.50908

>  <SCORE.RESTR.PHARMA.con_1>
7.50908

>  <SCORE.RESTR.PHARMA.con_2>
0

>  <SCORE.RESTR.norm>
0.187727

>  <SCORE.SYSTEM>
-7.96108

>  <SCORE.SYSTEM.CONST>
0

>  <SCORE.SYSTEM.DIHEDRAL>
4.89061

>  <SCORE.SYSTEM.POLAR>
-2.86489

>  <SCORE.SYSTEM.VDW>
-0.665772

>  <SCORE.SYSTEM.norm>
-0.199027

>  <SCORE.heavy>
40

>  <SCORE.norm>
-0.0428677

$$$$
